<?xml version="1.0" encoding="UTF-8"?>

<!-- generated on vie 02 ago 2019 22:29:15 CEST by Netedit Version 0.32.0
<?xml version="1.0" encoding="UTF-8"?>

<configuration xmlns:xsi="http://www.w3.org/2001/XMLSchema-instance" xsi:noNamespaceSchemaLocation="http://sumo.dlr.de/xsd/netconvertConfiguration.xsd">

    <input>
        <sumo-net-file value="/media/root/SG2T12/V6_RESTRICTION/RESPALDO_REVISOR/PTP_WITH_STOP_BERLIN/PTP_V8/veins2/examples/pablo/berlin.net.xml"/>
    </input>

    <output>
        <output-file value="/media/root/SG2T12/V6_RESTRICTION/RESPALDO_REVISOR/PTP_WITH_STOP_BERLIN/PTP_V8/veins2/examples/pablo/berlin.net.xml"/>
    </output>

    <processing>
        <no-turnarounds value="true"/>
        <offset.disable-normalization value="true"/>
        <lefthand value="false"/>
        <junctions.corner-detail value="0"/>
        <rectangular-lane-cut value="false"/>
        <walkingareas value="false"/>
    </processing>

</configuration>
-->

<net version="0.27" xmlns:xsi="http://www.w3.org/2001/XMLSchema-instance" xsi:noNamespaceSchemaLocation="http://sumo.dlr.de/xsd/net_file.xsd">

    <location netOffset="-376604.01,-5821219.97" convBoundary="-6.85,-25.73,4581.37,4215.90" origBoundary="13.180744,52.527276,13.282879,52.565348" projParameter="+proj=utm +zone=33 +ellps=WGS84 +datum=WGS84 +units=m +no_defs"/>

    <type id="highway.bridleway" priority="1" numLanes="1" speed="2.78" allow="pedestrian" oneway="1" width="2.00"/>
    <type id="highway.bus_guideway" priority="1" numLanes="1" speed="27.78" allow="bus" oneway="1"/>
    <type id="highway.cycleway" priority="1" numLanes="1" speed="8.33" allow="bicycle" oneway="0" width="1.00"/>
    <type id="highway.footway" priority="1" numLanes="1" speed="2.78" allow="pedestrian" oneway="1" width="2.00"/>
    <type id="highway.ford" priority="1" numLanes="1" speed="2.78" allow="army" oneway="0"/>
    <type id="highway.living_street" priority="3" numLanes="1" speed="2.78" disallow="tram rail_urban rail rail_electric ship" oneway="0"/>
    <type id="highway.motorway" priority="13" numLanes="2" speed="44.44" allow="private emergency authority army vip passenger hov taxi bus coach delivery truck trailer motorcycle evehicle custom1 custom2" oneway="1"/>
    <type id="highway.motorway_link" priority="12" numLanes="1" speed="22.22" allow="private emergency authority army vip passenger hov taxi bus coach delivery truck trailer motorcycle evehicle custom1 custom2" oneway="1"/>
    <type id="highway.path" priority="1" numLanes="1" speed="2.78" allow="bicycle pedestrian" oneway="1" width="2.00"/>
    <type id="highway.pedestrian" priority="1" numLanes="1" speed="2.78" allow="pedestrian" oneway="1" width="2.00"/>
    <type id="highway.primary" priority="9" numLanes="2" speed="27.78" disallow="tram rail_urban rail rail_electric ship" oneway="0"/>
    <type id="highway.primary_link" priority="8" numLanes="1" speed="22.22" disallow="tram rail_urban rail rail_electric ship" oneway="0"/>
    <type id="highway.raceway" priority="14" numLanes="2" speed="83.33" allow="vip" oneway="0"/>
    <type id="highway.residential" priority="4" numLanes="1" speed="13.89" disallow="tram rail_urban rail rail_electric ship" oneway="0"/>
    <type id="highway.secondary" priority="7" numLanes="2" speed="27.78" disallow="tram rail_urban rail rail_electric ship" oneway="0"/>
    <type id="highway.secondary_link" priority="6" numLanes="1" speed="22.22" disallow="tram rail_urban rail rail_electric ship" oneway="0"/>
    <type id="highway.service" priority="2" numLanes="1" speed="5.56" allow="delivery bicycle pedestrian" oneway="0"/>
    <type id="highway.stairs" priority="1" numLanes="1" speed="1.39" allow="pedestrian" oneway="1" width="2.00"/>
    <type id="highway.step" priority="1" numLanes="1" speed="1.39" allow="pedestrian" oneway="1" width="2.00"/>
    <type id="highway.steps" priority="1" numLanes="1" speed="1.39" allow="pedestrian" oneway="1" width="2.00"/>
    <type id="highway.tertiary" priority="6" numLanes="1" speed="22.22" disallow="tram rail_urban rail rail_electric ship" oneway="0"/>
    <type id="highway.tertiary_link" priority="5" numLanes="1" speed="22.22" disallow="tram rail_urban rail rail_electric ship" oneway="0"/>
    <type id="highway.track" priority="1" numLanes="1" speed="5.56" disallow="tram rail_urban rail rail_electric ship" oneway="0"/>
    <type id="highway.trunk" priority="11" numLanes="2" speed="27.78" disallow="tram rail_urban rail rail_electric bicycle pedestrian ship" oneway="0"/>
    <type id="highway.trunk_link" priority="10" numLanes="1" speed="22.22" disallow="tram rail_urban rail rail_electric bicycle pedestrian ship" oneway="0"/>
    <type id="highway.unclassified" priority="5" numLanes="1" speed="13.89" disallow="tram rail_urban rail rail_electric ship" oneway="0"/>
    <type id="highway.unsurfaced" priority="1" numLanes="1" speed="8.33" disallow="tram rail_urban rail rail_electric ship" oneway="0"/>
    <type id="railway.light_rail" priority="15" numLanes="1" speed="27.78" allow="rail_urban" oneway="1"/>
    <type id="railway.preserved" priority="15" numLanes="1" speed="27.78" allow="rail" oneway="1"/>
    <type id="railway.rail" priority="15" numLanes="1" speed="83.33" allow="rail rail_electric" oneway="1"/>
    <type id="railway.subway" priority="15" numLanes="1" speed="27.78" allow="rail_urban" oneway="1"/>
    <type id="railway.tram" priority="15" numLanes="1" speed="13.89" allow="tram" oneway="1"/>

    <edge id=":1177827282_0" function="internal">
        <lane id=":1177827282_0_0" index="0" disallow="tram rail_urban rail rail_electric ship" speed="13.89" length="0.31" shape="992.57,923.15 992.49,922.85"/>
    </edge>
    <edge id=":1177827282_1" function="internal">
        <lane id=":1177827282_1_0" index="0" disallow="tram rail_urban rail rail_electric ship" speed="13.89" length="2.41" shape="992.57,923.15 993.00,921.73 993.67,921.09"/>
    </edge>
    <edge id=":1177827282_4" function="internal">
        <lane id=":1177827282_4_0" index="0" speed="13.89" length="2.41" shape="993.67,921.09 994.58,921.24 995.73,922.19"/>
    </edge>
    <edge id=":1177827282_2" function="internal">
        <lane id=":1177827282_2_0" index="0" disallow="tram rail_urban rail rail_electric ship" speed="13.89" length="0.27" shape="995.65,921.93 995.73,922.19"/>
    </edge>
    <edge id=":1177827282_3" function="internal">
        <lane id=":1177827282_3_0" index="0" disallow="tram rail_urban rail rail_electric ship" speed="13.89" length="2.41" shape="995.65,921.93 995.21,923.35 994.53,923.98"/>
    </edge>
    <edge id=":1177827282_5" function="internal">
        <lane id=":1177827282_5_0" index="0" speed="13.89" length="2.41" shape="994.53,923.98 993.62,923.81 992.49,922.85"/>
    </edge>
    <edge id=":1177833746_0" function="internal">
        <lane id=":1177833746_0_0" index="0" disallow="tram rail_urban rail rail_electric ship" speed="11.11" length="0.24" shape="1169.14,856.54 1169.03,856.56"/>
        <lane id=":1177833746_0_1" index="1" disallow="tram rail_urban rail rail_electric ship" speed="11.11" length="0.24" shape="1168.55,853.29 1168.20,853.37"/>
    </edge>
    <edge id=":1177833746_2" function="internal">
        <lane id=":1177833746_2_0" index="0" disallow="tram rail_urban rail rail_electric ship" speed="8.33" length="2.41" shape="1168.55,853.29 1167.19,852.70 1166.63,851.96"/>
    </edge>
    <edge id=":1177833746_6" function="internal">
        <lane id=":1177833746_6_0" index="0" speed="8.33" length="2.41" shape="1166.63,851.96 1166.89,851.08 1167.96,850.04"/>
    </edge>
    <edge id=":1177833746_3" function="internal">
        <lane id=":1177833746_3_0" index="0" disallow="tram rail_urban rail rail_electric ship" speed="11.11" length="0.73" shape="1166.54,846.98 1167.37,846.80"/>
        <lane id=":1177833746_3_1" index="1" disallow="tram rail_urban rail rail_electric ship" speed="11.11" length="0.73" shape="1167.37,850.17 1167.96,850.04"/>
    </edge>
    <edge id=":1177833746_5" function="internal">
        <lane id=":1177833746_5_0" index="0" disallow="tram rail_urban rail rail_electric ship" speed="13.89" length="2.41" shape="1167.37,850.17 1168.78,850.66 1169.38,851.36"/>
    </edge>
    <edge id=":1177833746_7" function="internal">
        <lane id=":1177833746_7_0" index="0" speed="13.89" length="2.41" shape="1169.38,851.36 1169.19,852.26 1168.20,853.37"/>
    </edge>
    <edge id=":1189877243_0" function="internal">
        <lane id=":1189877243_0_0" index="0" disallow="tram rail_urban rail rail_electric ship" speed="8.34" length="4.93" shape="1644.84,2262.37 1643.93,2261.38 1642.92,2260.90 1641.79,2260.92 1640.56,2261.44"/>
    </edge>
    <edge id=":1189877243_1" function="internal">
        <lane id=":1189877243_1_0" index="0" disallow="tram rail_urban rail rail_electric ship" speed="8.34" length="9.65" shape="1644.84,2262.37 1643.61,2260.00 1643.27,2257.74 1643.80,2255.58 1645.20,2253.55"/>
    </edge>
    <edge id=":1189877243_2" function="internal">
        <lane id=":1189877243_2_0" index="0" disallow="tram rail_urban rail rail_electric ship" speed="13.89" length="4.82" shape="1644.84,2262.37 1644.82,2260.88 1645.27,2260.08 1646.18,2259.95 1647.56,2260.51"/>
    </edge>
    <edge id=":1189877243_3" function="internal">
        <lane id=":1189877243_3_0" index="0" disallow="tram rail_urban rail rail_electric ship" speed="8.34" length="5.15" shape="1647.62,2255.79 1646.90,2256.85 1646.66,2257.99 1646.88,2259.21 1647.56,2260.51"/>
    </edge>
    <edge id=":1189877243_4" function="internal">
        <lane id=":1189877243_4_0" index="0" disallow="tram rail_urban rail rail_electric ship" speed="2.78" length="9.10" shape="1647.62,2255.79 1645.76,2257.74 1644.39,2258.98 1642.86,2260.04 1640.56,2261.44"/>
    </edge>
    <edge id=":1189877243_5" function="internal">
        <lane id=":1189877243_5_0" index="0" disallow="tram rail_urban rail rail_electric ship" speed="2.78" length="4.82" shape="1647.62,2255.79 1646.17,2256.14 1645.29,2255.88 1644.96,2255.01 1645.20,2253.55"/>
    </edge>
    <edge id=":1189877243_6" function="internal">
        <lane id=":1189877243_6_0" index="0" disallow="tram rail_urban rail rail_electric ship" speed="2.78" length="8.17" shape="1638.86,2258.61 1640.93,2257.36 1642.30,2256.41 1643.53,2255.30 1645.20,2253.55"/>
    </edge>
    <edge id=":1189877243_7" function="internal">
        <lane id=":1189877243_7_0" index="0" disallow="tram rail_urban rail rail_electric ship" speed="8.34" length="10.03" shape="1638.86,2258.61 1641.37,2257.55 1643.66,2257.51 1645.72,2258.49 1647.56,2260.51"/>
    </edge>
    <edge id=":1189877243_8" function="internal">
        <lane id=":1189877243_8_0" index="0" disallow="tram rail_urban rail rail_electric ship" speed="2.78" length="4.82" shape="1638.86,2258.61 1640.34,2258.68 1641.12,2259.17 1641.19,2260.09 1640.56,2261.44"/>
    </edge>
    <edge id=":1370147626_0" function="internal">
        <lane id=":1370147626_0_0" index="0" disallow="tram rail_urban rail rail_electric ship" speed="13.89" length="5.33" shape="4494.75,1127.60 4494.11,1128.83 4493.24,1129.76 4492.13,1130.40 4490.79,1130.74"/>
    </edge>
    <edge id=":1370147626_1" function="internal">
        <lane id=":1370147626_1_0" index="0" disallow="tram rail_urban rail rail_electric ship" speed="13.89" length="1.74" shape="4491.66,1126.44 4491.45,1126.84 4491.16,1127.15 4490.80,1127.35 4490.36,1127.47"/>
    </edge>
    <edge id=":1376912801_0" function="internal">
        <lane id=":1376912801_0_0" index="0" disallow="tram rail_urban rail rail_electric ship" speed="18.05" length="0.18" shape="1772.03,1770.15 1771.98,1770.03"/>
        <lane id=":1376912801_0_1" index="1" disallow="tram rail_urban rail rail_electric ship" speed="18.05" length="0.18" shape="1775.10,1768.93 1775.01,1768.73"/>
    </edge>
    <edge id=":1376912801_2" function="internal">
        <lane id=":1376912801_2_0" index="0" disallow="tram rail_urban rail rail_electric ship" speed="27.78" length="2.41" shape="1775.10,1768.93 1775.41,1767.48 1776.02,1766.79"/>
    </edge>
    <edge id=":1376912801_6" function="internal">
        <lane id=":1376912801_6_0" index="0" speed="27.78" length="2.41" shape="1776.02,1766.79 1776.94,1766.87 1778.16,1767.71"/>
    </edge>
    <edge id=":1376912801_3" function="internal">
        <lane id=":1376912801_3_0" index="0" disallow="tram rail_urban rail rail_electric ship" speed="18.05" length="0.35" shape="1781.08,1766.13 1781.23,1766.50"/>
        <lane id=":1376912801_3_1" index="1" disallow="tram rail_urban rail rail_electric ship" speed="18.05" length="0.35" shape="1778.04,1767.43 1778.16,1767.71"/>
    </edge>
    <edge id=":1376912801_5" function="internal">
        <lane id=":1376912801_5_0" index="0" disallow="tram rail_urban rail rail_electric ship" speed="8.33" length="2.41" shape="1778.04,1767.43 1777.77,1768.89 1777.18,1769.60"/>
    </edge>
    <edge id=":1376912801_7" function="internal">
        <lane id=":1376912801_7_0" index="0" speed="8.33" length="2.41" shape="1777.18,1769.60 1776.26,1769.54 1775.01,1768.73"/>
    </edge>
    <edge id=":1379155296_0" function="internal">
        <lane id=":1379155296_0_0" index="0" disallow="tram rail_urban rail rail_electric ship" speed="8.33" length="0.30" shape="3757.74,1552.40 3757.46,1552.29"/>
    </edge>
    <edge id=":1379155296_1" function="internal">
        <lane id=":1379155296_1_0" index="0" disallow="tram rail_urban rail rail_electric ship" speed="8.33" length="2.41" shape="3757.74,1552.40 3756.89,1551.18 3756.80,1550.26"/>
    </edge>
    <edge id=":1379155296_4" function="internal">
        <lane id=":1379155296_4_0" index="0" speed="8.33" length="2.41" shape="3756.80,1550.26 3757.49,1549.65 3758.94,1549.33"/>
    </edge>
    <edge id=":1379155296_2" function="internal">
        <lane id=":1379155296_2_0" index="0" disallow="tram rail_urban rail rail_electric ship" speed="8.33" length="0.30" shape="3758.66,1549.22 3758.94,1549.33"/>
    </edge>
    <edge id=":1379155296_3" function="internal">
        <lane id=":1379155296_3_0" index="0" disallow="tram rail_urban rail rail_electric ship" speed="8.33" length="2.41" shape="3758.66,1549.22 3759.51,1550.44 3759.60,1551.36"/>
    </edge>
    <edge id=":1379155296_5" function="internal">
        <lane id=":1379155296_5_0" index="0" speed="8.33" length="2.41" shape="3759.60,1551.36 3758.91,1551.98 3757.46,1552.29"/>
    </edge>
    <edge id=":1379586365_0" function="internal">
        <lane id=":1379586365_0_0" index="0" disallow="tram rail_urban rail rail_electric ship" speed="8.33" length="4.82" shape="4107.37,1491.03 4108.71,1491.69 4109.23,1492.45 4108.93,1493.32 4107.81,1494.31"/>
    </edge>
    <edge id=":1381565080_0" function="internal">
        <lane id=":1381565080_0_0" index="0" disallow="tram rail_urban rail rail_electric ship" speed="13.89" length="4.82" shape="4273.27,1352.28 4274.56,1353.02 4275.03,1353.82 4274.67,1354.67 4273.49,1355.58"/>
    </edge>
    <edge id=":1381565110_0" function="internal">
        <lane id=":1381565110_0_0" index="0" disallow="tram rail_urban rail rail_electric ship" speed="13.89" length="4.82" shape="4267.91,1403.27 4269.18,1404.05 4269.62,1404.86 4269.24,1405.70 4268.03,1406.57"/>
    </edge>
    <edge id=":1381565111_0" function="internal">
        <lane id=":1381565111_0_0" index="0" disallow="tram rail_urban rail rail_electric ship" speed="13.89" length="9.53" shape="4187.50,1412.98 4186.16,1403.54"/>
    </edge>
    <edge id=":1381565111_1" function="internal">
        <lane id=":1381565111_1_0" index="0" disallow="tram rail_urban rail rail_electric ship" speed="13.89" length="5.44" shape="4187.50,1412.98 4187.51,1409.95 4188.51,1407.75"/>
    </edge>
    <edge id=":1381565111_2" function="internal">
        <lane id=":1381565111_2_0" index="0" disallow="tram rail_urban rail rail_electric ship" speed="13.89" length="2.41" shape="4187.50,1412.98 4188.15,1411.64 4188.91,1411.11"/>
    </edge>
    <edge id=":1381565111_9" function="internal">
        <lane id=":1381565111_9_0" index="0" speed="13.89" length="5.44" shape="4188.51,1407.75 4190.50,1406.39 4193.48,1405.86"/>
    </edge>
    <edge id=":1381565111_10" function="internal">
        <lane id=":1381565111_10_0" index="0" speed="13.89" length="2.41" shape="4188.91,1411.11 4189.78,1411.40 4190.77,1412.51"/>
    </edge>
    <edge id=":1381565111_3" function="internal">
        <lane id=":1381565111_3_0" index="0" disallow="tram rail_urban rail rail_electric ship" speed="13.89" length="5.13" shape="4193.59,1409.15 4192.18,1409.41 4191.25,1410.05 4190.77,1411.09 4190.77,1412.51"/>
    </edge>
    <edge id=":1381565111_4" function="internal">
        <lane id=":1381565111_4_0" index="0" disallow="tram rail_urban rail rail_electric ship" speed="13.89" length="10.38" shape="4193.59,1409.15 4190.65,1408.89 4188.43,1407.86 4186.94,1406.08 4186.16,1403.54"/>
    </edge>
    <edge id=":1381565111_5" function="internal">
        <lane id=":1381565111_5_0" index="0" disallow="tram rail_urban rail rail_electric ship" speed="13.89" length="4.82" shape="4193.59,1409.15 4192.32,1408.37 4191.88,1407.56 4192.27,1406.72 4193.48,1405.86"/>
    </edge>
    <edge id=":1381565111_6" function="internal">
        <lane id=":1381565111_6_0" index="0" disallow="tram rail_urban rail rail_electric ship" speed="13.89" length="5.46" shape="4189.43,1403.07 4189.84,1404.34 4190.65,1405.22 4191.86,1405.73 4193.48,1405.86"/>
    </edge>
    <edge id=":1381565111_7" function="internal">
        <lane id=":1381565111_7_0" index="0" disallow="tram rail_urban rail rail_electric ship" speed="13.89" length="9.54" shape="4189.43,1403.07 4190.77,1412.51"/>
    </edge>
    <edge id=":1381565111_8" function="internal">
        <lane id=":1381565111_8_0" index="0" disallow="tram rail_urban rail rail_electric ship" speed="13.89" length="2.41" shape="4189.43,1403.07 4188.79,1404.41 4188.03,1404.94"/>
    </edge>
    <edge id=":1381565111_11" function="internal">
        <lane id=":1381565111_11_0" index="0" speed="13.89" length="2.41" shape="4188.03,1404.94 4187.15,1404.65 4186.16,1403.54"/>
    </edge>
    <edge id=":1395086071_0" function="internal">
        <lane id=":1395086071_0_0" index="0" disallow="tram rail_urban rail rail_electric ship" speed="20.84" length="3.54" shape="1874.66,3016.10 1874.44,3015.14 1873.90,3014.55 1873.36,3013.97 1873.16,3013.00"/>
        <lane id=":1395086071_0_1" index="1" disallow="tram rail_urban rail rail_electric ship" speed="20.84" length="3.54" shape="1874.66,3016.10 1874.96,3015.17 1875.55,3014.64 1876.14,3014.12 1876.45,3013.19"/>
        <lane id=":1395086071_0_2" index="2" disallow="tram rail_urban rail rail_electric ship" speed="20.84" length="3.54" shape="1877.95,3016.24 1878.25,3015.32 1878.84,3014.81 1879.44,3014.30 1879.75,3013.37"/>
    </edge>
    <edge id=":1400382376_0" function="internal">
        <lane id=":1400382376_0_0" index="0" disallow="tram rail_urban rail rail_electric ship" speed="18.05" length="3.93" shape="3799.75,2227.63 3799.13,2228.61 3798.76,2229.33 3798.53,2230.09 3798.32,2231.23"/>
    </edge>
    <edge id=":1400382376_1" function="internal">
        <lane id=":1400382376_1_0" index="0" disallow="tram rail_urban rail rail_electric ship" speed="13.89" length="3.76" shape="3799.75,2227.63 3798.22,2229.44 3797.04,2229.48 3796.95,2229.29"/>
    </edge>
    <edge id=":1400382376_4" function="internal">
        <lane id=":1400382376_4_0" index="0" speed="13.89" length="5.24" shape="3796.95,2229.29 3796.21,2227.76 3795.72,2224.26"/>
    </edge>
    <edge id=":1400382376_2" function="internal">
        <lane id=":1400382376_2_0" index="0" disallow="tram rail_urban rail rail_electric ship" speed="18.05" length="6.50" shape="3795.06,2230.69 3795.42,2228.80 3795.67,2227.49 3795.79,2226.18 3795.72,2224.26"/>
    </edge>
    <edge id=":1400382376_3" function="internal">
        <lane id=":1400382376_3_0" index="0" disallow="tram rail_urban rail rail_electric ship" speed="22.22" length="2.54" shape="3795.06,2230.69 3796.07,2229.61 3796.96,2229.33 3797.06,2229.41"/>
    </edge>
    <edge id=":1400382376_5" function="internal">
        <lane id=":1400382376_5_0" index="0" speed="22.22" length="2.28" shape="3797.06,2229.41 3797.70,2229.87 3798.32,2231.23"/>
    </edge>
    <edge id=":1400407036_0" function="internal">
        <lane id=":1400407036_0_0" index="0" disallow="tram rail_urban rail rail_electric ship" speed="13.89" length="7.76" shape="2018.89,4205.73 2016.77,4205.80 2015.12,4205.18 2013.94,4203.87 2013.24,4201.87"/>
    </edge>
    <edge id=":1400407036_1" function="internal">
        <lane id=":1400407036_1_0" index="0" disallow="tram rail_urban rail rail_electric ship" speed="13.89" length="2.53" shape="2018.32,4202.48 2017.63,4202.51 2017.09,4202.30 2016.70,4201.88 2016.47,4201.22"/>
    </edge>
    <edge id=":1403109557_0" function="internal">
        <lane id=":1403109557_0_0" index="0" disallow="tram rail_urban rail rail_electric ship" speed="8.33" length="4.82" shape="2464.23,4112.12 2464.00,4113.59 2463.42,4114.31 2462.50,4114.28 2461.23,4113.50"/>
    </edge>
    <edge id=":1403109558_0" function="internal">
        <lane id=":1403109558_0_0" index="0" disallow="tram rail_urban rail rail_electric ship" speed="11.11" length="6.39" shape="2307.11,3855.61 2306.22,3854.69 2304.94,3854.19 2303.28,3854.11 2301.24,3854.46"/>
    </edge>
    <edge id=":1403109558_1" function="internal">
        <lane id=":1403109558_1_0" index="0" disallow="tram rail_urban rail rail_electric ship" speed="8.33" length="9.73" shape="2307.11,3855.61 2302.14,3847.24"/>
    </edge>
    <edge id=":1403109558_2" function="internal">
        <lane id=":1403109558_2_0" index="0" disallow="tram rail_urban rail rail_electric ship" speed="8.33" length="9.62" shape="2305.00,3845.60 2309.91,3853.86"/>
    </edge>
    <edge id=":1403109558_3" function="internal">
        <lane id=":1403109558_3_0" index="0" disallow="tram rail_urban rail rail_electric ship" speed="11.11" length="5.42" shape="2305.00,3845.60 2306.26,3848.75 2306.10,3850.77"/>
    </edge>
    <edge id=":1403109558_4" function="internal">
        <lane id=":1403109558_4_0" index="0" disallow="tram rail_urban rail rail_electric ship" speed="8.33" length="2.41" shape="2305.00,3845.60 2304.90,3847.08 2304.39,3847.85"/>
    </edge>
    <edge id=":1403109558_8" function="internal">
        <lane id=":1403109558_8_0" index="0" speed="11.11" length="6.44" shape="2306.10,3850.77 2306.06,3851.27 2304.38,3853.18 2301.24,3854.46"/>
    </edge>
    <edge id=":1403109558_9" function="internal">
        <lane id=":1403109558_9_0" index="0" speed="8.33" length="2.41" shape="2304.39,3847.85 2303.47,3847.90 2302.14,3847.24"/>
    </edge>
    <edge id=":1403109558_5" function="internal">
        <lane id=":1403109558_5_0" index="0" disallow="tram rail_urban rail rail_electric ship" speed="11.11" length="5.37" shape="2300.44,3851.26 2301.86,3850.68 2302.62,3849.82 2302.71,3848.67 2302.14,3847.24"/>
    </edge>
    <edge id=":1403109558_6" function="internal">
        <lane id=":1403109558_6_0" index="0" disallow="tram rail_urban rail rail_electric ship" speed="11.11" length="10.56" shape="2300.44,3851.26 2303.58,3850.78 2306.21,3851.06 2308.32,3852.08 2309.91,3853.86"/>
    </edge>
    <edge id=":1403109558_7" function="internal">
        <lane id=":1403109558_7_0" index="0" disallow="tram rail_urban rail rail_electric ship" speed="13.89" length="4.82" shape="2300.44,3851.26 2301.84,3851.76 2302.44,3852.46 2302.24,3853.36 2301.24,3854.46"/>
    </edge>
    <edge id=":1404907418_0" function="internal">
        <lane id=":1404907418_0_0" index="0" disallow="tram rail_urban rail rail_electric ship" speed="27.78" length="11.78" shape="1284.03,2964.45 1283.77,2960.82 1283.91,2958.31 1284.44,2955.84 1285.34,2952.28"/>
        <lane id=":1404907418_0_1" index="1" disallow="tram rail_urban rail rail_electric ship" speed="27.78" length="11.78" shape="1287.31,2964.11 1287.08,2960.81 1287.22,2958.54 1287.72,2956.29 1288.55,2953.07"/>
    </edge>
    <edge id=":1404907418_2" function="internal">
        <lane id=":1404907418_2_0" index="0" disallow="tram rail_urban rail rail_electric ship" speed="20.84" length="3.18" shape="1287.31,2964.11 1287.84,2962.32 1288.83,2961.47"/>
    </edge>
    <edge id=":1404907418_10" function="internal">
        <lane id=":1404907418_10_0" index="0" speed="20.84" length="10.02" shape="1288.83,2961.47 1289.79,2960.65 1293.18,2959.10 1298.00,2957.66"/>
    </edge>
    <edge id=":1404907418_3" function="internal">
        <lane id=":1404907418_3_0" index="0" disallow="tram rail_urban rail rail_electric ship" speed="20.84" length="5.74" shape="1294.96,2954.63 1294.78,2956.33 1295.23,2957.40 1296.30,2957.85 1298.00,2957.66"/>
    </edge>
    <edge id=":1404907418_4" function="internal">
        <lane id=":1404907418_4_0" index="0" disallow="tram rail_urban rail rail_electric ship" speed="27.78" length="9.52" shape="1294.96,2954.63 1294.28,2957.21 1293.85,2959.00 1293.71,2960.81 1293.88,2963.44"/>
        <lane id=":1404907418_4_1" index="1" disallow="tram rail_urban rail rail_electric ship" speed="27.78" length="9.52" shape="1291.75,2953.85 1291.00,2956.75 1290.54,2958.77 1290.39,2960.81 1290.59,2963.77"/>
    </edge>
    <edge id=":1404907418_6" function="internal">
        <lane id=":1404907418_6_0" index="0" disallow="tram rail_urban rail rail_electric ship" speed="27.78" length="2.41" shape="1291.75,2953.85 1290.66,2954.86 1289.76,2955.06"/>
    </edge>
    <edge id=":1404907418_11" function="internal">
        <lane id=":1404907418_11_0" index="0" speed="27.78" length="2.41" shape="1289.76,2955.06 1289.06,2954.46 1288.55,2953.07"/>
    </edge>
    <edge id=":1404907418_7" function="internal">
        <lane id=":1404907418_7_0" index="0" disallow="tram rail_urban rail rail_electric ship" speed="25.00" length="11.11" shape="1280.46,2961.90 1281.77,2961.07 1283.02,2959.18 1284.21,2956.26 1285.34,2952.28"/>
    </edge>
    <edge id=":1404907418_8" function="internal">
        <lane id=":1404907418_8_0" index="0" disallow="tram rail_urban rail rail_electric ship" speed="18.05" length="18.05" shape="1280.46,2961.90 1298.00,2957.66"/>
    </edge>
    <edge id=":1404907418_9" function="internal">
        <lane id=":1404907418_9_0" index="0" disallow="tram rail_urban rail rail_electric ship" speed="25.00" length="11.44" shape="1280.46,2961.90 1284.73,2961.17 1287.85,2961.23 1289.80,2962.10 1290.59,2963.77"/>
    </edge>
    <edge id=":1404907436_0" function="internal">
        <lane id=":1404907436_0_0" index="0" disallow="tram rail_urban rail rail_electric ship" speed="13.89" length="0.26" shape="1305.94,2956.11 1306.02,2956.10 1306.07,2956.09 1306.12,2956.09 1306.20,2956.09"/>
    </edge>
    <edge id=":1404907442_0" function="internal">
        <lane id=":1404907442_0_0" index="0" disallow="tram rail_urban rail rail_electric ship" speed="13.89" length="1.22" shape="1365.27,2964.65 1364.29,2963.93"/>
    </edge>
    <edge id=":1404907442_2" function="internal">
        <lane id=":1404907442_2_0" index="0" speed="13.89" length="3.60" shape="1364.29,2963.93 1364.07,2963.77 1363.70,2962.93 1364.14,2962.12 1365.41,2961.35"/>
    </edge>
    <edge id=":1404907442_1" function="internal">
        <lane id=":1404907442_1_0" index="0" disallow="tram rail_urban rail rail_electric ship" speed="13.89" length="2.69" shape="1363.13,2962.77 1365.41,2961.35"/>
    </edge>
    <edge id=":1439449248_0" function="internal">
        <lane id=":1439449248_0_0" index="0" disallow="tram rail_urban rail rail_electric ship" speed="2.78" length="4.82" shape="2424.74,2868.48 2426.11,2869.05 2426.68,2869.78 2426.43,2870.67 2425.38,2871.72"/>
    </edge>
    <edge id=":1449129055_0" function="internal">
        <lane id=":1449129055_0_0" index="0" disallow="tram rail_urban rail rail_electric ship" speed="8.33" length="1.94" shape="1256.09,835.25 1255.50,835.52 1255.09,835.69 1254.66,835.83 1254.04,836.02"/>
        <lane id=":1449129055_0_1" index="1" disallow="tram rail_urban rail rail_electric ship" speed="8.33" length="1.94" shape="1254.71,832.26 1254.25,832.46 1253.93,832.60 1253.60,832.71 1253.12,832.85"/>
    </edge>
    <edge id=":1449129055_2" function="internal">
        <lane id=":1449129055_2_0" index="0" disallow="tram rail_urban rail rail_electric ship" speed="8.33" length="2.41" shape="1254.71,832.26 1253.24,832.02 1252.52,831.44"/>
    </edge>
    <edge id=":1449129055_7" function="internal">
        <lane id=":1449129055_7_0" index="0" speed="8.33" length="2.41" shape="1252.52,831.44 1252.55,830.52 1253.33,829.26"/>
    </edge>
    <edge id=":1449129055_3" function="internal">
        <lane id=":1449129055_3_0" index="0" disallow="tram rail_urban rail rail_electric ship" speed="8.33" length="0.72" shape="1250.36,823.34 1250.42,823.32 1250.47,823.31 1250.51,823.29 1250.58,823.26"/>
        <lane id=":1449129055_3_1" index="1" disallow="tram rail_urban rail rail_electric ship" speed="8.33" length="0.72" shape="1251.28,826.51 1251.48,826.45 1251.62,826.40 1251.76,826.35 1251.96,826.26"/>
        <lane id=":1449129055_3_2" index="2" disallow="tram rail_urban rail rail_electric ship" speed="8.33" length="0.72" shape="1252.20,829.68 1252.54,829.58 1252.78,829.50 1253.01,829.41 1253.33,829.26"/>
    </edge>
    <edge id=":1449129055_6" function="internal">
        <lane id=":1449129055_6_0" index="0" disallow="tram rail_urban rail rail_electric ship" speed="8.33" length="2.41" shape="1252.20,829.68 1253.62,830.13 1254.25,830.80"/>
    </edge>
    <edge id=":1449129055_8" function="internal">
        <lane id=":1449129055_8_0" index="0" speed="8.33" length="2.41" shape="1254.25,830.80 1254.08,831.71 1253.12,832.85"/>
    </edge>
    <edge id=":1688123728_0" function="internal">