<?xml version="1.0" encoding="UTF-8"?>

<!-- generated on Sun Jun 16 11:53:40 2019 by Eclipse SUMO duarouter Version 1.0.1
<configuration xmlns:xsi="http://www.w3.org/2001/XMLSchema-instance" xsi:noNamespaceSchemaLocation="http://sumo.dlr.de/xsd/duarouterConfiguration.xsd">

    <input>
        <net-file value="/root/Desktop/CASTELLDEFELS/castell.net.xml"/>
        <route-files value="trips.trips.xml"/>
    </input>

    <output>
        <output-file value="castell.rou.xml"/>
        <alternatives-output value="castell.rou.alt.xml"/>
    </output>

    <time>
        <begin value="0"/>
        <end value="50.0"/>
    </time>

    <report>
        <no-warnings value="true"/>
        <ignore-errors value="true"/>
        <no-step-log value="true"/>
    </report>

</configuration>
-->

<routes xmlns:xsi="http://www.w3.org/2001/XMLSchema-instance" xsi:noNamespaceSchemaLocation="http://sumo.dlr.de/xsd/routes_file.xsd">
 
   <vType id="EV" vClass="passenger" accel="2.6" decel="4.5" sigma="0.5" length="5" minGap="2.5" emissionClass="Energy/unknown">
        <param key="has.rerouting.device" value="true"/>   
        <param key="has.battery.device" value="true"/>   
        <param key="maximumBatteryCapacity" value="48000"/> <!--ACTUALCAPACITY INICIAL = MAXCAPACITY / 2 / osea 24000-->
        <param key="maximumPower" value="1000"/>
        <param key="vehicleMass" value="2000"/>
        <param key="frontSurfaceArea" value="5"/>
        <param key="airDragCoefficient" value="0.6"/>
        <param key="internalMomentOfInertia" value="0.01"/>
        <param key="radialDragCoefficient" value="0.5"/>
        <param key="rollDragCoefficient" value="0.01"/>
    	<param key="constantPowerIntake" value="100"/>
        <param key="propulsionEfficiency" value="0.9"/>
        <param key="recuperationEfficiency" value="0.9"/>
        <param key="stoppingTreshold" value="0.1"/> 
   </vType> 
   <vType id="passenger" vClass="passenger" accel="2.6" decel="4.5" sigma="0.5" length="5" minGap="2.5">
  		  <param key="has.rerouting.device" value="true"/>   
   </vType> 
 
    <vehicle id="0" type="EV" depart="0.00">
        <route edges="180566429 19742303#4 28683167 -444812052 -19742483 19742528 19742218#3-AddedOnRampEdge 19742218#3 19742218#4 560113363#0 560113363#1 216669252 216669262#0-AddedOnRampEdge 216669262#0 216669262#1 216669262#2-AddedOnRampEdge 216669262#2 216669262#2-AddedOffRampEdge 216669262#3 216669262#4 216669262#5 216669262#6 216669262#7-AddedOnRampEdge 216669262#7 216669262#7-AddedOffRampEdge 216669262#8 216669262#9 216669262#10 216669262#11-AddedOnRampEdge 216669262#11 560126944 560126943 560113362 215099775 314132718 215099797#0 215099797#1-AddedOnRampEdge 215099797#1 22703908#0 22703908#1 22708040#0 22708040#1 22708040#3 20282896#1 20282784#3 20282784#4 20282784#5 20282854 -20282597 -20282591 677906615 225005456#1 -221335539 20019249 560352794 560352792 560352791 20019428 20019383#0 20019383#1 20019383#2 20019383#5 20019383#6 453608715#0 453608715#1 540512650 540512653#0 540512653#1 540512653#2 221312008#0 221312008#1 221312008#2 221312008#4 -147165487#2 -147165487#1 -147165487#0 40103171#1 40103171#2 40103171#3 -40103171#3"/>
    </vehicle>
<!--   
    <vehicle id="1" type="EV" depart="0.00">
        <route edges="561036905 561036906 561036909#0 561036909#1 561036909#2 295101562 -540512647#1 -540512647#0 40103157#0 40103157#1 -146366274#3 -146366274#2 -146366274#1 -146366274#0 -540512655#2 -540512655#1 -540512655#0 -540512648 -20019383#6 -20019383#5 -20019383#2 -20019383#1 -20019383#0 20019391 20019197#0 20019197#1 20019232 221335539 224096052#0 223503637 221335541 677906617#1 20019493#0 20019493#1 -50055540 139995614#0 139995614#1 -221600530 83397207 550841308 -22707209 -20295516 -20295416 20295221#0 20295221#1 550841309 550855627#0 550855627#1 20312079 238499615#1-AddedOnRampEdge 238499615#1 238499615#1-AddedOffRampEdge 19825069#0 19825069#1 19825069#2-AddedOnRampEdge 19825069#2 19825069#3-AddedOnRampEdge 19825069#3 19825069#3-AddedOffRampEdge 19825069#4 420883155#0-AddedOnRampEdge 420883155#0 420883155#1 420883155#2 420883155#2-AddedOffRampEdge 420883152#0 420883152#1 19825184#0 19825184#1 19825184#1-AddedOffRampEdge 19801042 -31817730 19794948 180274904#2 19794989 180274899-AddedOnRampEdge 180274899 19794990#0 19794990#1 -19791097 19791086#0 19791086#1 19791086#2 19791076#7 19797898#0 19797898#1 -126641580#3 -126641580#2 -126641580#1 -126641580#0 -126641578 -148110005 -126641577#2 -126641577#1 -126641577#0 -126641579 -180566431#1 -19795149#4"/>
    </vehicle>

    <vehicle id="2" type="EV" depart="0.00">
        <route edges="223802114 19791099#1 180274904#0 31817730 180285676 31817732 19801003 19801006 19801130 180274897-AddedOnRampEdge 180274897 180274902#0 180274902#1-AddedOnRampEdge 180274902#1 420883156 19920168#0-AddedOnRampEdge 19920168#0 19920168#1 19920168#2 19921965#0 19921965#0-AddedOffRampEdge 19921965#1 19921965#2-AddedOnRampEdge 19921965#2 19921965#2-AddedOffRampEdge 19921965#3 19921965#4-AddedOnRampEdge 19921965#4 19921854#1-AddedOnRampEdge 19921854#1 180600787 180600787-AddedOffRampEdge 20019268 20019197#1 560352787 560352794 560352792 560352791 20019428 20019383#0 20019383#1 20019383#2 20019383#5 20019383#6 540512648 540512655#0 540512655#1 540512655#2 540512655#3 540512657#0 540512657#1 145689970#0 145689970#1 145689970#2 550842989#0 -145574867 -540512646#1 -540512646#0 -295101440#1 -145574865#1 145574865#1"/>
    </vehicle>
    <vehicle id="3" type="EV" depart="0.00">
        <route edges="112693674#0 -112693674#0 -145891283#1 -145891283#0 295101423 561036909#0 561036909#1 561036909#2 295101562 -540512647#1 -540512647#0 40103157#0 40103157#1 -146366274#3 -146366274#2 -146366274#1 -146366274#0 -540512655#2 -540512655#1 -540512655#0 -540512648 -20019383#6 -20019383#5 -20019383#2 -20019383#1 -20019383#0 20019391 20019197#0 20019197#1 20019232 221335539 224096052#0 223503637 221335541 677906617#1 20019493#0 20019493#1 -50055540 139995614#0 139995614#1 -221600530 83397207 550841308 -22707209 -20295516 -20295416 20295221#0 20295221#1 550841309 550855627#0 550855627#1 20312079 238499615#1-AddedOnRampEdge 238499615#1 238499615#1-AddedOffRampEdge 19825069#0 19825069#1 19825069#2-AddedOnRampEdge 19825069#2 19825069#3-AddedOnRampEdge 19825069#3 19825069#3-AddedOffRampEdge 19825069#4 420883155#0-AddedOnRampEdge 420883155#0 420883155#1 420883155#2 420883155#2-AddedOffRampEdge 420883152#0 420883152#1 19825184#0 19825184#1 19825184#1-AddedOffRampEdge 19801042 -31817730 19794948 180274904#2 19794989 180274899-AddedOnRampEdge 180274899 19794990#0 -148110009#2 -148110009#1 -148110009#0 -19797431 19797358#0 19800391#0"/>
    </vehicle>
    <vehicle id="4" type="EV" depart="0.00">
        <route edges="19791066 180566429 19742303#4 28683167 -444812052 -19742483 19742528 19742218#3-AddedOnRampEdge 19742218#3 19742218#4 560113363#0 560113363#1 216669252 216669262#0-AddedOnRampEdge 216669262#0 216669262#1 216669262#2-AddedOnRampEdge 216669262#2 216669262#2-AddedOffRampEdge 216669262#3 216669262#4 216669262#5 216669262#6 216669262#7-AddedOnRampEdge 216669262#7 216669262#7-AddedOffRampEdge 216669262#8 216669262#9 216669262#10 216669262#11-AddedOnRampEdge 216669262#11 560126944 560126943 560113362 215099775 314132718 215099797#0 215099797#1-AddedOnRampEdge 215099797#1 22703908#0 22703908#1 22708040#0 22708040#1 22708040#3 20282896#1 20282784#3 20282784#4 20282784#5 20282854 -20282597 -20282591 677906615 225005456#1 -221335539 20019249 560352794 560352792 560352791 20019428 20019383#0 20019383#1 20019383#2 20019383#5 20019383#6 540512648 540512655#0 540512655#1 540512655#2 540512655#3 540512657#0 540512657#1 145689970#0 145689970#1 145689970#2 550842989#0 -145574867 -540512646#1 -145574868"/>
    </vehicle>
    <vehicle id="6" type="EV" depart="0.00">
        <route edges="40103171#3 -40103171#3 -40103171#2 -40103171#1 147165487#0 147165487#1 147165487#2 -221312008#4 -221312008#2 -221312008#1 -221312008#0 -540512653#2 -540512653#1 -540512653#0 -540512650 221312011 540512649 -540512648 -20019383#6 -20019383#5 -20019383#2 -20019383#1 -20019383#0 20019391 20019197#0 20019197#1 20019232 221335539 224096052#0 223503637 221335541 677906617#1 20019493#0 20019493#1 -50055540 139995614#0 139995614#1 -221600530 83397207 550841308 -22707209 -20295516 -20295416 20295221#0 20295221#1 550841309 550855627#0 550855627#1 20312079 238499615#1-AddedOnRampEdge 238499615#1 238499615#1-AddedOffRampEdge 19825069#0 19825069#1 19825069#2-AddedOnRampEdge 19825069#2 19825069#3-AddedOnRampEdge 19825069#3 19825069#3-AddedOffRampEdge 19825069#4 420883155#0-AddedOnRampEdge 420883155#0 420883155#1 420883155#2 420883155#2-AddedOffRampEdge 420883152#0 420883152#1 19825184#0 19825184#1 19825184#1-AddedOffRampEdge 19801042 -31817730 19794948 180274904#2 19794989 180274899-AddedOnRampEdge 180274899 19794990#0 19794990#1 -19791097 19791086#0 19791086#1 19791086#2 19791076#7 19797898#0 19797898#1 -126641580#3 -126641580#2 -126641580#1 445698679"/>
    </vehicle>
    <vehicle id="8" type="EV" depart="0.00">
        <route edges="-23029200#0 23029200#0 23029200#1 -gneE0 -540512655#1 -540512655#0 -540512648 -20019383#6 -20019383#5 -20019383#2 -20019383#1 -20019383#0 20019391 20019197#0 20019197#1 20019232 221335539 224096052#0 223503637 221335541 677906617#1 20019493#0 20019493#1 -50055540 139995614#0 139995614#1 -221600530 83397207 550841308 -22707209 -20295516 -20295416 20295221#0 20295221#1 550841309 550855627#0 550855627#1 20312079 238499615#1-AddedOnRampEdge 238499615#1 238499615#1-AddedOffRampEdge 19825069#0 19825069#1 19825069#2-AddedOnRampEdge 19825069#2 19825069#3-AddedOnRampEdge 19825069#3 19825069#3-AddedOffRampEdge 19825069#4 420883155#0-AddedOnRampEdge 420883155#0 420883155#1 420883155#2 420883155#2-AddedOffRampEdge 420883152#0 420883152#1 19825184#0 19825184#1 19825184#1-AddedOffRampEdge 19801042 -31817730 19794948 180274904#2 19794989 180274899-AddedOnRampEdge 180274899 19794990#0 19794990#1 -19791097 19791086#0 19791086#1 19791086#2 19791076#7 19791076#0 19791076#1 19791076#2 19791076#3 19803631 19803649#0 182939360 182939359"/>
    </vehicle>
    <vehicle id="9" type="EV" depart="0.00">
        <route edges="386829254 19826402#0 19826402#1 19826408#0 19826408#1 386829252 386829250 19826340#2 539697836 539694755#0 19826459 20022987#0 20022987#1 gneE8 -19804095 -180482236 -180274894 -31511965 19801150 180274902#1-AddedOnRampEdge 180274902#1 420883156 19920168#0-AddedOnRampEdge 19920168#0 19920168#1 19920168#2 19921965#0 19921965#0-AddedOffRampEdge 19921965#1 19921965#2-AddedOnRampEdge 19921965#2 19921965#2-AddedOffRampEdge 19921965#3 19921965#4-AddedOnRampEdge 19921965#4 19921854#1-AddedOnRampEdge 19921854#1 180600787 180600787-AddedOffRampEdge 180600784 180600786 221367438 gneE5 gneE4"/>
    </vehicle>
    <vehicle id="10" type="EV" depart="0.00">
        <route edges="-19797346 -180566430#1 -180566430#0 180566429 19742303#4 28683167 -444812052 -19742483 19742528 19742218#3-AddedOnRampEdge 19742218#3 19742218#4 560113363#0 560113363#1 216669252 216669262#0-AddedOnRampEdge 216669262#0 216669262#1 216669262#2-AddedOnRampEdge 216669262#2 216669262#2-AddedOffRampEdge 216669262#3 216669262#4 216669262#5 216669262#6 216669262#7-AddedOnRampEdge 216669262#7 216669262#7-AddedOffRampEdge 216669262#8 216669262#9 216669262#10 216669262#11-AddedOnRampEdge 216669262#11 560126944 560126943 560113362 215099775 314132718 215099797#0 215099797#1-AddedOnRampEdge 215099797#1 22703908#0 22703908#1 22708040#0 22708040#1 22708040#3 20282896#1 20282784#3 20282784#4 20282784#5 20282854 -20282597 -20282591 677906615 225005456#1 -221335539 20019249 560352794 560352792 560352791 20019428 20019383#0 20019383#1 20019383#2 20019383#5 20019383#6 453608715#0 453608715#1 540512650 147353571#0 147353567#0 147353567#1"/>
    </vehicle>
    <vehicle id="11" type="EV" depart="0.00">
        <route edges="23029190#4 23029195 151177507#2 151177507#3 151177507#4 151177507#5 151177507#6 151177507#7 242159388#0 242159388#1 242159388#2 242159388#3 221307829#0 221307829#1 540512645 221243079#0 221243080#0 -234411854#12 -234411854#11 -234411854#10 -234411854#9 -234411854#6 -234411854#5 -234411854#4 -234411854#3 -234411854#2 -234411854#1 221956769 540512643 540512642 540512660#0 221242773 -28683194#1 -28683194#0 -20283081#2 -20283081#1 22901780#0 22901780#1 22901780#2 22697060 215099776#0 215099776#1 215099776#2 215099776#3 215099776#4 215099776#5 215099776#6 215099776#7 215099776#8 215099776#8-AddedOffRampEdge 215099776#9 215099776#10-AddedOnRampEdge 215099776#10 215099776#10-AddedOffRampEdge 215099776#11 560126947#0-AddedOnRampEdge 560126947#0 560126947#0-AddedOffRampEdge 20207151#0 -22924577 -19739630#7 -19739630#6 -19739630#5 -19739630#4 -19739630#3 -19739630#2 -19739630#1 -19739630#0 -19739633 -28683106#1 -28683106#0 -28683122#0 -19672710 550829954#0 550829954#1 550829954#2"/>
    </vehicle>
    <vehicle id="13" type="EV" depart="0.00">
        <route edges="19742218#0-AddedOffRampEdge 19742218#1 19742218#1-AddedOffRampEdge 19742218#2 19742218#3-AddedOnRampEdge 19742218#3 19742218#4 560113363#0 560113363#1 216669252 216669262#0-AddedOnRampEdge 216669262#0 216669262#1 216669262#2-AddedOnRampEdge 216669262#2 216669262#2-AddedOffRampEdge 216669262#3 216669262#4 216669262#5 216669262#6 216669262#7-AddedOnRampEdge 216669262#7 216669262#7-AddedOffRampEdge 216669262#8 216669262#9 216669262#10 216669262#11-AddedOnRampEdge 216669262#11 560126944 560126943 560113362 215099775 314132718 215099797#0 215099797#1-AddedOnRampEdge 215099797#1 22703908#0 22703908#1 22708040#0 22708040#1 22708040#3 20282896#1 20282784#3 20282784#4 20282784#5 20282784#6 20282784#0 20282784#1 20282882 20283082 460765283 20283081#0 20283081#1 20283081#2 28683194#0 28683194#1 234411855 540512660#2 22923804 234411854#1 234411854#2 234411854#3 234411854#4 234411854#5 234411854#6 234411854#9 234411854#10 234411854#11 234411854#12 223890046#2 223890046#3 22891627#0 22891627#1 22891627#2 22891627#3 221860353 -242159388#3 -242159388#2 -242159388#1 -242159388#0 -151177507#7 -151177507#6 -151177507#5 -151177507#4 -23029198 23029190#3 23029196"/>
    </vehicle>
    <vehicle id="15" type="EV" depart="0.00">
        <route edges="145891281#0 145689974 295101423 561036909#0 561036909#1 561036909#2 295101562 -540512647#1 -540512647#0 40103157#0 40103157#1 -146366274#3 -146366274#2 -146366274#1 -146366274#0 -540512655#2 -540512655#1 -540512655#0 -540512648 -20019383#6 -20019383#5 -20019383#2 -20019383#1 -20019383#0 20019391 20019197#0 20019197#1 20019232 221335539 224096052#0 223503637 20282591 20282597 20282838 20282784#1 20282882 20283082 460765283 20283081#0 22901780#0 22901780#1 22901780#2 22697060 215099776#0 215099776#1 215099776#2 215099776#3 215099776#4 215099776#5 215099776#6 215099776#7 215099776#8 215099776#8-AddedOffRampEdge 215099776#9 215099776#10-AddedOnRampEdge 215099776#10 215099776#10-AddedOffRampEdge 215099776#11 560126947#0-AddedOnRampEdge 560126947#0 560126947#0-AddedOffRampEdge 20207151#0 -22924577 -19739630#7 -19739630#6 -19739630#5 -19739630#4 -19739630#3 -19739630#2 -19739630#1 -19739630#0 -19739633 -28683106#1 -28683106#0 -28683122#0 -19672710 550829954#0 550829954#1 550829954#2 19672352#0 -19742338 -19742332 -28683156 -180566435 180566437 19742303#1 19742303#2 19791066 180566429"/>
    </vehicle>
    <vehicle id="16" type="EV" depart="0.00">
        <route edges="19803917#4 19803917#5 19803671#0 19803671#1 19803671#2 19803671#3 19804063#0 19804063#1 19804063#1-AddedOffRampEdge 27997791 180254976 180235455 27997790 -31511965 19801150 180274902#1-AddedOnRampEdge 180274902#1 420883156 19920168#0-AddedOnRampEdge 19920168#0 19920168#1 19920168#2 19921965#0 19921965#0-AddedOffRampEdge 19921965#1 19921965#2-AddedOnRampEdge 19921965#2 19921965#2-AddedOffRampEdge 19921965#3 19921965#4-AddedOnRampEdge 19921965#4 19921854#1-AddedOnRampEdge 19921854#1 180600787 180600787-AddedOffRampEdge 20019268 20019197#1 560352787 560352794 560352792 560352791 20019428 20019383#0 20019383#1 20019383#2 20019383#5 20019383#6 453608715#0 453608715#1 540512650 540512653#0 540512653#1 540512653#2 -40103199 -560352789 -540512652 -22890989 242159396#0 242159396#1 -151177507#7 -151177507#6 -151177507#5 -151177507#4 -151177507#3 -151177507#2 151177507#2"/>
    </vehicle>
    <vehicle id="17" type="EV" depart="0.00">
        <route edges="19791099#1 180274904#0 31817730 180285676 31817732 19801003 19801006 19801130 180274897-AddedOnRampEdge 180274897 180274902#0 180274902#1-AddedOnRampEdge 180274902#1 420883156 19920168#0-AddedOnRampEdge 19920168#0 19920168#1 19920168#2 19921965#0 19921965#0-AddedOffRampEdge 19921965#1 19921965#2-AddedOnRampEdge 19921965#2 19921965#2-AddedOffRampEdge 19921965#3 19921965#4-AddedOnRampEdge 19921965#4 19921854#1-AddedOnRampEdge 19921854#1 180600787 180600787-AddedOffRampEdge 20019268 20019197#1 560352787 560352794 560352792 560352791 20019428 20019383#0 20019383#1 20019383#2 20019383#5 20019383#6 540512648 540512655#0 540512655#1 540512655#2 146366274#0 146366274#1 146366274#2 146366274#3 -40103157#1"/>
    </vehicle>
    <vehicle id="18" type="EV" depart="0.00">
        <route edges="19785031#3 19668710#2 19668710#3 19668710#4 19671121#0 19671121#1 550829954#2 19672352#0 19672352#1 19672710 28683122#0 28683106#0 28683106#1 19739633 19739630#0 19739630#1 19739630#2 19739630#3 19739630#4 19739630#5 19739630#6 19739630#7 22924502 20321455#0 20283674#1 20283674#2 20283674#3 678067340#0 678067340#1 678067340#3 678067340#4 678067340#5 678067340#6 678067340#7 678067340#8 678067340#9 678067340#10 678067340#11 678067340#12 678067340#13 678067340#14 678067340#15 -540512641#1 -540512641#0 -550841314#3 -550841314#2 -550841314#1 -550841314#0 -234411856#1 -234411856#0 -540512661#2 -540512661#1 22699722 540512660#0 540512660#1 540512660#2 22923804 234411854#1 234411854#2 234411854#3 234411854#4 234411854#5 234411854#6 234411854#9 234411854#10 234411854#11 234411854#12 223890046#2 223890046#3 22891627#0 22891627#1 22891627#2 22891627#3 221860353 -242159388#3 -242159388#2 -242159388#1 -242159388#0 -151177507#7 -151177507#6 -151177507#5 23029200#0 23029200#1 -gneE0 540512655#2 540512655#3 540512657#0 540512657#1 145689970#0 145689970#1 145689970#2 550842989#0 540512647#0 540512647#1 295101421 561036905 145891281#0 145891281#1 112693670 145891279 -112693674#1"/>
    </vehicle>
    <vehicle id="19" type="EV" depart="0.00">
        <route edges="295101567#0 295101582 561036909#2 295101562 -540512647#1 -540512647#0 40103157#0 40103157#1 -146366274#3 -146366274#2 -146366274#1 -146366274#0 -540512655#2 -540512655#1 -540512655#0 -540512648 -20019383#6 -20019383#5 -20019383#2 -20019383#1 -20019383#0 20019391 20019197#0 20019197#1 20019232 221335539 224096052#0 223503637 221335541 677906617#1 20019493#0 20019493#1 -50055540 139995614#0 139995614#1 -221600530 83397207 550841308 -22707209 -20295516 -20295416 20295221#0 20295221#1 550841309 550855627#0 550855627#1 20312079 238499615#1-AddedOnRampEdge 238499615#1 238499615#1-AddedOffRampEdge 19825069#0 19825069#1 19825069#2-AddedOnRampEdge 19825069#2 19825069#3-AddedOnRampEdge 19825069#3 19825069#3-AddedOffRampEdge 19825069#4 420883155#0-AddedOnRampEdge 420883155#0 420883155#1 420883155#2 420883155#2-AddedOffRampEdge 420883152#0 420883152#1 19825184#0 19825184#1 19825184#1-AddedOffRampEdge 19801042 -31817730 19794948 180274904#2 19794989 180274899-AddedOnRampEdge 180274899 19794990#0 19794990#1 -19791097 19791086#0 19791086#1 19791086#2 19791076#7 19797898#0 19797898#1 -126641580#3 -126641580#2 -126641580#1 -126641580#0 -126641578 -148110005 -126641577#2 -126641577#1 -126641577#0 126641577#0"/>
    </vehicle>
    <vehicle id="20" type="EV" depart="0.00">
        <route edges="-540512656 -644284317 -540512655#3 -540512655#2 -540512655#1 -540512655#0 -540512648 -20019383#6 -20019383#5 -20019383#2 -20019383#1 -20019383#0 20019391 20019197#0 20019197#1 20019232 221335539 224096052#0 223503637 221335541 677906617#1 20019493#0 20019493#1 -50055540 139995614#0 139995614#1 -221600530 83397207 550841308 -22707209 -20295516 -20295416 20295221#0 20295221#1 550841309 550855627#0 550855627#1 20312079 238499615#1-AddedOnRampEdge 238499615#1 238499615#1-AddedOffRampEdge 19825069#0 19825069#1 19825069#2-AddedOnRampEdge 19825069#2 19825069#3-AddedOnRampEdge 19825069#3 19825069#3-AddedOffRampEdge 19825069#4 420883155#0-AddedOnRampEdge 420883155#0 420883155#1 420883155#2 420883155#2-AddedOffRampEdge 420883152#0 420883152#1 19825184#0 19825184#1 19825184#1-AddedOffRampEdge 19801042 -31817730 19794948 180274904#2 19794989 180274899-AddedOnRampEdge 180274899 19794990#0 19794990#1 -19791097 19791086#0 19791086#1 19791086#2 19791076#7 19791076#0 19791076#1 19791076#2 19791076#3 19803631 19803649#0 19803649#1 19803649#2 19803900 666211056 -666211056"/>
    </vehicle>
    <vehicle id="22" type="EV" depart="0.00">
        <route edges="304278502#0 304278502#1 666211050#2 666211050#3 666211050#4 666211050#0 -19803902#2 -19803902#1 -19803902#0 -666211056 -19803900 -19803649#2 -19803649#1 -19803649#0 19803628 19791076#5 19791084#0 19791084#1 19791084#2 19791097 19791099#0 19791099#1 180274904#0 31817730 180285676 31817732 19801003 19801006 19801130 180274897-AddedOnRampEdge 180274897 180274902#0 180274902#1-AddedOnRampEdge 180274902#1 420883156 19920168#0-AddedOnRampEdge 19920168#0 19920168#1 19920168#2 19921965#0 19921965#0-AddedOffRampEdge 19921965#1 19921965#2-AddedOnRampEdge 19921965#2 19921965#2-AddedOffRampEdge 19921965#3 19921965#4-AddedOnRampEdge 19921965#4 19921854#1-AddedOnRampEdge 19921854#1 180600787 180600787-AddedOffRampEdge 20019268 20019197#1 20019232 221335539 224096052#0 223503637 20282591 20282597 20282838 20282784#1 20282882 20283082 460765283 20283081#0 20283081#1 20283081#2 28683194#0 28683194#1 234411855 540512660#2 22923804 234411854#1 234411854#2 234411854#3 234411854#4 234411854#5 234411854#6 234411854#9 234411854#10 234411854#11 234411854#12 223890046#2 223890046#3 22891627#0 22699566#0 22699566#1 22699566#2 22699566#3 22699566#4 221955999#0 221955999#1 221955999#2"/>
    </vehicle>
    <vehicle id="25" type="EV" depart="0.00">
        <route edges="19791068#0 19791068#1 19791076#1 19791076#2 19791076#3 19791076#4 19791076#5 19791084#0 19791084#1 19791084#2 19791097 19791099#0 19791099#1 180274904#0 31817730 180285676 31817732 19801003 19801006 19801130 180274897-AddedOnRampEdge 180274897 180274902#0 180274902#1-AddedOnRampEdge 180274902#1 420883156 19920168#0-AddedOnRampEdge 19920168#0 19920168#1 19920168#2 19921965#0 19921965#0-AddedOffRampEdge 19921965#1 19921965#2-AddedOnRampEdge 19921965#2 19921965#2-AddedOffRampEdge 19921965#3 19921965#4-AddedOnRampEdge 19921965#4 19921854#1-AddedOnRampEdge 19921854#1 180600787 180600787-AddedOffRampEdge 20019268 20019197#1 560352787 560352794 560352792 560352791 20019428 20019383#0 20019383#1 20019383#2 20019383#5 20019383#6 540512648 540512655#0 540512655#1 -540512655#1"/>
    </vehicle>
    <vehicle id="26" type="EV" depart="0.00">
        <route edges="144052052#0 -144052052#0 -540512653#2 -540512653#1 -540512653#0 -540512650 221312011 540512649 -540512648 -20019383#6 -20019383#5 -20019383#2 -20019383#1 -20019383#0 20019391 20019197#0 20019197#1 20019232 221335539 224096052#0 223503637 221335541 677906617#1 20019493#0 20019493#1 -50055540 139995614#0 139995614#1 -221600530 83397207 550841308 -22707209 -20295516 -20295416 20295221#0 20295221#1 550841309 550855627#0 550855627#1 20312079 238499615#1-AddedOnRampEdge 238499615#1 238499615#1-AddedOffRampEdge 19825069#0 19825069#1 19825069#2-AddedOnRampEdge 19825069#2 19825069#3-AddedOnRampEdge 19825069#3 19825069#3-AddedOffRampEdge 19825069#4 420883155#0-AddedOnRampEdge 420883155#0 420883155#1 420883155#2 420883155#2-AddedOffRampEdge 420883152#0 420883152#1 19825184#0 19825184#1 19825184#1-AddedOffRampEdge 19801042 -31817730 19794948 180274904#2 19794989 180274899-AddedOnRampEdge 180274899 19794990#0 19794990#1 -19791097 19791086#0 19791086#1 19791086#2 19791076#7 19791076#0 19791076#1 178227484#0 20279595#0 20279595#1 20279595#2 182939357 182939358#0 -182939358#0"/>
    </vehicle>
    <vehicle id="27" type="EV" depart="0.00">
        <route edges="295101423 561036909#0 561036909#1 561036909#2 295101562 -540512647#1 -540512647#0 40103157#0 40103157#1 -146366274#3 -146366274#2 -146366274#1 -146366274#0 -540512655#2 -540512655#1 -540512655#0 -540512648 -20019383#6 -20019383#5 -20019383#2 -20019383#1 -20019383#0 20019391 20019197#0 20019197#1 20019232 221335539 224096052#0 223503637 20282591 20282597 20282838 20282784#1 20282882 20283082 460765283 20283081#0 22901780#0 22901780#1 22901780#2 22697060 215099776#0 215099776#1 215099776#2 215099776#3 215099776#4 215099776#5 215099776#6 215099776#7 215099776#8 215099776#8-AddedOffRampEdge 215099776#9 215099776#10-AddedOnRampEdge 215099776#10 215099776#10-AddedOffRampEdge 215099776#11 560126947#0-AddedOnRampEdge 560126947#0 560126947#0-AddedOffRampEdge 20207151#0 -22924577 -19739630#7 -19739630#6 -19739630#5 -19739630#4 -19739630#3 -19739630#2 -19739630#1 -19739630#0 -19739633 -28683106#1 -28683106#0 -28683122#0 -19672710 550829954#0 550829954#1 550829954#2 19672352#0 19672352#1 19672710 19689684"/>
    </vehicle>
    <vehicle id="28" type="EV" depart="0.00">
        <route edges="19801029 31817732 19801003 19801006 19801130 180274897-AddedOnRampEdge 180274897 180274902#0 180274902#1-AddedOnRampEdge 180274902#1 420883156 19920168#0-AddedOnRampEdge 19920168#0 19920168#1 19920168#2 19921965#0 19921965#0-AddedOffRampEdge 19921965#1 19921965#2-AddedOnRampEdge 19921965#2 19921965#2-AddedOffRampEdge 19921965#3 19921965#4-AddedOnRampEdge 19921965#4 19921854#1-AddedOnRampEdge 19921854#1 180600787 180600787-AddedOffRampEdge 20019268 20019197#1 560352787 560352794 560352792 560352791 20019428 20019383#0 20019383#1 20019383#2 20019383#5 20019383#6 453608715#0 453608715#1 540512650 540512653#0 540512653#1 540512653#2 -40103199 -560352789 -540512652 -22890989 242159396#0 242159396#1 -151177507#7 -151177507#6 -151177507#5 -151177507#4 -151177507#3 -151177507#2 -151177507#1 -151177507#0 -42368739#2 398400614 23029192#0"/>
    </vehicle>
    <vehicle id="29" type="EV" depart="0.00">
        <route edges="23029192#0 23029192#1 42368739#1 42368739#2 151177507#0 151177507#1 151177507#2 151177507#3 151177507#4 23029200#0 23029200#1 -gneE0 -540512655#1 -540512655#0 -540512648 -20019383#6 -20019383#5 -20019383#2 -20019383#1 -20019383#0 20019391 20019197#0 20019197#1 20019232 221335539 224096052#0 223503637 221335541 677906617#1 20019493#0 20019493#1 -50055540 139995614#0 139995614#1 -221600530 83397207 550841308 -22707209 -20295516 -20295416 20295221#0 20295221#1 550841309 550855627#0 550855627#1 20312079 238499615#1-AddedOnRampEdge 238499615#1 238499615#1-AddedOffRampEdge 19825069#0 19825069#1 19825069#2-AddedOnRampEdge 19825069#2 19825069#3-AddedOnRampEdge 19825069#3 19825069#3-AddedOffRampEdge 19825069#4 420883155#0-AddedOnRampEdge 420883155#0 420883155#1 420883155#2 420883155#2-AddedOffRampEdge 420883152#0 420883152#1 19825184#0 19825184#1 19825184#1-AddedOffRampEdge 19801042 -31817730 19794948 180274904#2 19794989 180274899-AddedOnRampEdge 180274899 19794990#0 19794990#1 -19791097 19791086#0 19791086#1 19791086#2 19791076#7 19797898#0 19797898#1 -126641580#3 -126641580#2 -126641580#1 -126641580#0 126641580#0"/>
    </vehicle>
    <vehicle id="31" type="EV" depart="0.00">
        <route edges="gneE4 79523713 79523267 -540512656 -644284317 -540512655#3 -540512655#2 -540512655#1 -540512655#0 -540512648 -20019383#6 -20019383#5 -20019383#2 -20019383#1 -20019383#0 20019391 20019197#0 20019197#1 20019232 221335539 224096052#0 223503637 221335541 677906617#1 20019493#0 20019493#1 -50055540 139995614#0 139995614#1 -221600530 83397207 550841308 -22707209 -20295516 -20295416 20295221#0 20295221#1 550841309 550855627#0 550855627#1 20312079 238499615#1-AddedOnRampEdge 238499615#1 238499615#1-AddedOffRampEdge 19825069#0 19825069#1 19825069#2-AddedOnRampEdge 19825069#2 19825069#3-AddedOnRampEdge 19825069#3 19825069#3-AddedOffRampEdge 19825069#4 420883155#0-AddedOnRampEdge 420883155#0 420883155#1 420883155#2 420883155#2-AddedOffRampEdge 420883152#0 420883152#1 19825184#0 19825184#1 19825184#1-AddedOffRampEdge 19825184#2 180274898-AddedOnRampEdge 180274898 19801029 31817732 -31817732"/>
    </vehicle>
    <vehicle id="33" type="EV" depart="0.00">
        <route edges="19742303#4 19742303#5 19742303#6 19801205 180566435 28683156 19742332 19742338 19672352#1 19672710 28683122#0 28683106#0 28683106#1 19739633 19739630#0 19739630#1 19739630#2 19739630#3 19739630#4 19739630#5 19739630#6 19739630#7 22924502 20321455#0 20283674#1 20283674#2 20283674#3 678067340#0 678067340#1 678067340#3 678067340#4 678067340#5 678067340#6 678067340#7 678067340#8 678067340#9 678067340#10 678067340#11 678067340#12 678067340#13 678067340#14 678067340#15 -540512641#1 -540512641#0 -550841314#3 -550841314#2 -550841314#1 -550841314#0 -234411856#1 -234411856#0 -540512661#2 -540512661#1 22699722 540512660#0 540512660#1 540512660#2 22923804 234411854#1 234411854#2 234411854#3 234411854#4 234411854#5 234411854#6 234411854#9 234411854#10 234411854#11 234411854#12 223890046#2 223890046#3 22891627#0 22891627#1 22891627#2 22891627#3 221860353 -242159388#3 -242159388#2 -242159388#1 -242159388#0 -151177507#7 -151177507#6 -151177507#5 23029200#0 23029200#1 gneE0"/>
    </vehicle>
    <vehicle id="34" type="EV" depart="0.00">