<?xml version="1.0" encoding="UTF-8"?>

<!-- generated on Mon Nov 11 19:36:52 2019 by SUMO polyconvert Version 0.32.0
<?xml version="1.0" encoding="UTF-8"?>

<configuration xmlns:xsi="http://www.w3.org/2001/XMLSchema-instance" xsi:noNamespaceSchemaLocation="http://sumo.dlr.de/xsd/polyconvertConfiguration.xsd">

    <input>
        <net-file value="/root/Desktop/NEW_MAP_BCN/sfamilia.net.xml"/>
        <osm-files value="/root/Desktop/NEW_MAP_BCN/sfamilia.osm"/>
    </input>

    <output>
        <output-file value="/root/Desktop/NEW_MAP_BCN/sfamilia.poly.xml"/>
    </output>

    <pruning>
        <prune.in-net value="true"/>
    </pruning>

    <processing>
        <ignore-errors value="true"/>
        <poi-layer-offset value="5"/>
    </processing>

    <building_defaults>
        <fill value="true"/>
    </building_defaults>

</configuration>
-->

<additional xmlns:xsi="http://www.w3.org/2001/XMLSchema-instance" xsi:noNamespaceSchemaLocation="http://sumo.dlr.de/xsd/additional_file.xsd">
    <location netOffset="-432038.16,-4582271.17" convBoundary="-1987.91,-776.61,3087.47,3869.36" origBoundary="2.163011,41.381063,2.223719,41.430217" projParameter="+proj=utm +zone=31 +ellps=WGS84 +datum=WGS84 +units=m +no_defs"/>

    <poly id="114709006" type="building" color="255,230,230" fill="1" layer="-1.00" shape="277.81,1640.21 295.58,1584.88 283.44,1572.93 263.53,1635.58 277.81,1640.21"/>
    <poly id="114709006#1" type="tourism" color="207,245,201" fill="1" layer="-2.00" shape="277.81,1640.21 295.58,1584.88 283.44,1572.93 263.53,1635.58 277.81,1640.21"/>
    <poly id="114709008" type="building" color="255,230,230" fill="1" layer="-1.00" shape="352.63,1650.37 380.53,1621.15 385.64,1615.81 382.18,1595.69 380.50,1597.42 356.98,1621.89 348.12,1631.12 340.67,1638.87 325.66,1654.46 343.26,1660.19 352.63,1650.37"/>
    <poly id="114709008#1" type="tourism" color="207,245,201" fill="1" layer="-2.00" shape="352.63,1650.37 380.53,1621.15 385.64,1615.81 382.18,1595.69 380.50,1597.42 356.98,1621.89 348.12,1631.12 340.67,1638.87 325.66,1654.46 343.26,1660.19 352.63,1650.37"/>
    <poly id="119472514" type="amenity" color="237,199,199" fill="1" layer="-1.00" shape="1429.62,1395.16 1480.87,1360.32 1471.42,1349.97 1461.01,1338.60 1449.67,1346.49 1413.40,1371.08 1415.17,1373.90 1429.62,1395.16"/>
    <poly id="119472514#1" type="building" color="255,230,230" fill="1" layer="-1.00" shape="1429.62,1395.16 1480.87,1360.32 1471.42,1349.97 1461.01,1338.60 1449.67,1346.49 1413.40,1371.08 1415.17,1373.90 1429.62,1395.16"/>
    <poly id="123116411" type="building" color="255,230,230" fill="1" layer="-1.00" shape="1107.08,408.86 1110.73,397.29 1112.83,386.67 1117.46,380.70 1125.19,369.40 1135.15,363.07 1141.66,356.46 1149.46,353.27 1156.27,344.47 1143.96,333.98 1138.11,344.33 1123.82,356.00 1106.75,373.00 1098.21,396.79 1094.87,408.04 1107.08,408.86"/>
    <poly id="123116419" type="building" color="255,230,230" fill="1" layer="-1.00" shape="1258.87,458.06 1209.09,437.25 1203.70,431.26 1194.47,443.25 1185.30,450.81 1175.19,456.26 1164.27,459.00 1153.09,460.03 1140.85,458.66 1129.17,455.39 1120.77,450.53 1113.84,444.70 1110.09,440.01 1094.79,420.97 1103.33,415.97 1114.95,425.13 1123.01,438.97 1135.59,444.47 1143.46,449.09 1153.79,449.61 1165.40,451.37 1173.17,445.38 1182.86,443.73 1189.36,435.87 1197.76,429.87 1198.75,419.03 1269.85,448.03 1258.87,458.06"/>
    <poly id="123116434" type="building" color="255,230,230" fill="1" layer="-1.00" shape="1139.89,333.71 1136.42,330.25 1104.50,298.47 1096.21,306.74 1131.60,341.97 1139.89,333.71"/>
    <poly id="123116441" type="building" color="255,230,230" fill="1" layer="-1.00" shape="1398.45,937.78 1399.40,936.90 1402.15,934.33 1406.37,930.39 1402.85,926.62 1396.07,933.31 1395.13,934.23 1388.46,927.08 1396.37,919.69 1391.00,913.96 1387.33,918.91 1386.37,920.21 1388.91,922.97 1387.44,924.37 1385.10,921.92 1384.45,922.78 1378.55,928.45 1380.47,931.46 1385.45,936.97 1391.80,943.99 1398.45,937.78"/>
    <poly id="123116443" type="building" color="255,230,230" fill="1" layer="-1.00" shape="1463.40,965.36 1471.95,957.75 1470.05,955.70 1462.68,947.77 1455.20,939.70 1449.38,944.91 1445.50,948.37 1443.38,950.27 1450.83,958.36 1460.04,968.35 1462.38,966.27 1463.40,965.36"/>
    <poly id="123116450" type="building" color="255,230,230" fill="1" layer="-1.00" shape="1086.54,482.72 1147.88,551.64 1166.01,551.98 1246.07,470.17 1237.59,462.08 1157.39,546.95 1093.49,475.85 1086.54,482.72"/>
    <poly id="123116455" type="building" color="255,230,230" fill="1" layer="-1.00" shape="1624.80,990.21 1624.68,991.35 1641.20,993.15 1641.33,991.97 1644.47,992.30 1644.93,988.11 1641.72,987.76 1641.86,986.47 1637.09,985.95 1637.63,980.99 1636.39,980.87 1636.68,977.75 1634.87,977.55 1632.41,977.26 1632.09,980.39 1630.75,980.32 1630.22,985.20 1625.37,984.67 1625.23,985.97 1622.06,985.64 1621.61,989.86 1624.80,990.21"/>
    <poly id="123116456" type="building" color="255,230,230" fill="1" layer="-1.00" shape="1543.14,916.87 1542.99,918.09 1549.98,918.99 1552.83,919.36 1560.11,920.29 1560.27,919.03 1563.15,919.41 1563.68,915.23 1560.82,914.86 1560.98,913.63 1555.84,912.98 1556.52,907.59 1555.23,907.42 1555.56,904.79 1552.27,904.36 1551.28,904.24 1550.93,907.02 1549.60,906.84 1548.92,912.20 1543.69,911.52 1543.54,912.77 1540.79,912.40 1540.27,916.51 1543.14,916.87"/>
    <poly id="123116458" type="building" color="255,230,230" fill="1" layer="-1.00" shape="1646.88,1013.59 1646.74,1014.86 1663.13,1016.62 1663.27,1015.38 1666.43,1015.72 1666.89,1011.44 1663.78,1011.11 1663.92,1009.84 1659.07,1009.32 1659.60,1004.41 1658.36,1004.26 1658.65,1001.12 1656.45,1000.89 1654.35,1000.67 1653.98,1003.73 1652.74,1003.66 1652.21,1008.65 1647.26,1008.12 1647.13,1009.35 1644.08,1009.01 1643.63,1013.24 1646.88,1013.59"/>
    <poly id="123116460" type="building" color="255,230,230" fill="1" layer="-1.00" shape="1516.56,893.09 1516.38,894.34 1523.16,895.28 1526.38,895.73 1533.43,896.71 1533.60,895.47 1536.39,895.86 1536.97,891.59 1534.21,891.21 1534.39,889.91 1529.20,889.19 1529.92,883.95 1528.63,883.77 1529.02,880.97 1524.82,880.39 1524.70,881.33 1524.44,883.21 1523.21,883.04 1522.48,888.30 1517.32,887.59 1517.14,888.87 1514.40,888.49 1513.82,892.70 1516.56,893.09"/>
    <poly id="123116462" type="building" color="255,230,230" fill="1" layer="-1.00" shape="1581.07,943.37 1580.93,944.65 1597.46,946.46 1597.58,945.30 1600.66,945.64 1601.13,941.28 1598.03,940.95 1598.17,939.64 1593.29,939.10 1593.85,934.07 1592.57,933.94 1592.88,930.93 1590.61,930.70 1588.67,930.48 1588.27,933.65 1587.09,933.52 1586.54,938.45 1581.63,937.91 1581.49,939.16 1578.40,938.81 1577.94,943.02 1581.07,943.37"/>
    <poly id="123116465" type="building" color="255,230,230" fill="1" layer="-1.00" shape="1668.50,1036.93 1668.37,1038.12 1684.86,1039.98 1685.00,1038.71 1688.06,1039.06 1688.54,1034.82 1685.51,1034.49 1685.65,1033.23 1680.80,1032.67 1681.35,1027.72 1680.08,1027.46 1680.31,1024.45 1678.11,1024.24 1676.01,1024.04 1675.63,1027.13 1674.43,1027.00 1673.87,1031.98 1668.98,1031.43 1668.84,1032.68 1665.79,1032.33 1665.32,1036.57 1668.50,1036.93"/>
    <poly id="123116466" type="building" color="255,230,230" fill="1" layer="-1.00" shape="1545.67,886.43 1545.49,887.61 1552.46,888.57 1555.70,889.01 1562.69,889.96 1562.85,888.78 1565.53,889.09 1566.33,885.02 1563.50,884.68 1563.70,883.44 1558.47,882.51 1559.22,877.29 1558.14,877.13 1558.45,874.52 1555.17,874.03 1554.14,873.89 1553.82,876.59 1552.39,876.35 1551.64,881.49 1546.53,880.90 1546.35,882.08 1543.48,881.75 1542.87,886.05 1545.67,886.43"/>
    <poly id="123116468" type="building" color="255,230,230" fill="1" layer="-1.00" shape="1602.91,966.78 1602.78,968.02 1619.35,969.80 1619.47,968.61 1622.59,968.95 1623.04,964.69 1619.90,964.36 1620.04,963.03 1615.16,962.51 1615.69,957.51 1614.47,957.29 1614.81,954.27 1612.71,954.08 1610.59,953.89 1610.17,956.99 1608.91,956.86 1608.39,961.80 1603.51,961.28 1603.37,962.55 1600.25,962.21 1599.79,966.44 1602.91,966.78"/>
    <poly id="123492023" type="building" color="255,230,230" fill="1" layer="-1.00" shape="1512.16,837.35 1475.89,850.60 1504.31,882.92 1531.26,858.84 1518.00,843.92 1512.16,837.35"/>
    <poly id="161007373" type="natural" color="140,196,107" fill="0" layer="-4.00" shape="1531.94,250.20 1527.46,252.68 1507.78,273.15 1497.58,285.19 1471.19,313.90 1485.62,332.22 1502.05,355.22 1516.08,379.66 1525.65,396.82 1538.74,426.09 1547.03,450.36 1558.68,474.95 1567.36,492.22 1580.12,513.70 1594.25,535.86 1609.90,557.38 1617.95,551.47 1621.11,555.02 1627.94,549.56 1629.04,551.12 1623.56,555.93 1623.09,557.73 1625.70,560.81 1627.84,559.54 1630.71,562.85 1627.82,565.68 1639.29,577.85 1632.31,583.87 1672.81,621.93 1724.35,673.06 1726.25,671.31 1722.57,667.89 1727.24,662.96 1731.93,667.50 1725.50,674.45 1741.79,690.55 1808.41,755.05 1809.28,754.11 1806.15,750.98 1810.04,746.56 1815.19,750.88 1809.79,756.29 1848.19,793.42 1884.62,756.29 1923.98,710.80"/>
    <poly id="177596864" type="building" color="255,230,230" fill="1" layer="-1.00" shape="1421.74,457.54 1438.41,441.30 1445.88,449.06 1449.52,454.37 1462.85,441.07 1458.21,436.63 1450.64,429.13 1458.62,419.89 1449.48,401.88 1407.14,443.57 1403.42,440.95 1399.18,442.34 1398.09,446.59 1426.60,473.80 1431.30,472.86 1432.39,469.28 1430.22,466.38 1421.74,457.54"/>
    <poly id="183087976" type="amenity" color="237,199,199" fill="1" layer="-1.00" shape="1123.95,1597.16 1113.27,1606.73 1110.50,1609.01 1099.47,1618.77 1124.45,1655.65 1143.93,1642.92 1126.51,1622.78 1137.96,1612.67 1123.95,1597.16"/>
    <poly id="183087976#1" type="building" color="255,230,230" fill="1" layer="-1.00" shape="1123.95,1597.16 1113.27,1606.73 1110.50,1609.01 1099.47,1618.77 1124.45,1655.65 1143.93,1642.92 1126.51,1622.78 1137.96,1612.67 1123.95,1597.16"/>
    <poly id="183087978" type="amenity" color="237,199,199" fill="1" layer="-1.00" shape="1446.84,1667.70 1455.34,1676.27 1483.31,1703.68 1496.19,1716.12 1516.69,1694.78 1518.37,1696.55 1522.42,1692.24 1538.43,1676.08 1512.99,1651.07 1478.36,1616.57 1475.76,1619.12 1446.78,1648.04 1446.84,1667.70"/>
    <poly id="183087979" type="amenity" color="237,199,199" fill="1" layer="-1.00" shape="1451.63,1214.15 1452.86,1215.63 1456.76,1212.17 1460.84,1208.55 1461.25,1208.18 1475.49,1195.55 1479.42,1192.06 1480.07,1191.49 1481.08,1190.59 1484.20,1187.82 1485.67,1186.52 1487.21,1185.15 1487.66,1184.74 1492.06,1180.83 1497.90,1175.63 1492.14,1169.48 1488.44,1172.86 1470.18,1152.76 1461.65,1158.49 1433.35,1177.83 1421.09,1186.23 1425.19,1191.09 1429.52,1196.08 1433.48,1200.66 1437.33,1205.10 1448.12,1217.56 1451.63,1214.15"/>
    <poly id="183087980" type="amenity" color="237,199,199" fill="1" layer="-1.00" shape="1663.40,1282.69 1681.22,1266.16 1718.03,1305.46 1700.46,1321.48 1663.40,1282.69"/>
    <poly id="183087980#1" type="building" color="255,230,230" fill="1" layer="-1.00" shape="1663.40,1282.69 1681.22,1266.16 1718.03,1305.46 1700.46,1321.48 1663.40,1282.69"/>
    <poly id="183087983" type="tourism" color="207,245,201" fill="1" layer="-2.00" shape="1496.19,1716.12 1516.69,1694.78 1518.37,1696.55 1522.42,1692.24 1538.43,1676.08 1512.99,1651.07 1478.36,1616.57 1476.67,1615.30 1507.99,1583.29 1521.28,1583.04 1531.58,1582.69 1591.41,1642.44 1592.00,1661.15 1576.27,1677.08 1572.59,1680.81 1542.11,1711.59 1527.19,1727.29 1507.57,1727.31 1496.19,1716.12"/>
    <poly id="183087984" type="tourism" color="207,245,201" fill="1" layer="-2.00" shape="1546.37,1376.22 1561.03,1393.86 1571.76,1387.11 1591.29,1375.94 1606.88,1368.38 1615.71,1364.97 1624.64,1359.90 1641.05,1347.53 1656.58,1337.70 1664.09,1334.07 1674.12,1329.72 1684.09,1328.19 1694.60,1328.96 1698.28,1324.56 1652.37,1273.33 1546.37,1376.22"/>
    <poly id="183087989" type="building" color="255,230,230" fill="1" layer="-1.00" shape="1138.57,1676.14 1124.45,1655.65 1143.93,1642.92 1146.54,1641.00 1157.37,1657.03 1160.92,1662.31 1162.04,1661.65 1161.80,1661.32 1172.48,1654.04 1173.17,1655.07 1174.42,1656.92 1160.36,1666.26 1160.02,1668.08 1159.47,1669.96 1158.83,1671.32 1157.91,1672.75 1156.88,1674.13 1155.88,1675.10 1153.90,1676.67 1152.49,1677.47 1151.09,1678.05 1149.74,1678.49 1148.26,1678.82 1146.64,1678.88 1144.94,1678.71 1143.33,1678.43 1141.99,1678.05 1140.75,1677.47 1139.93,1677.01 1139.49,1677.33 1138.57,1676.14"/>
    <poly id="183087989#1" type="leisure" color="207,245,201" fill="1" layer="-2.00" shape="1138.57,1676.14 1124.45,1655.65 1143.93,1642.92 1146.54,1641.00 1157.37,1657.03 1160.92,1662.31 1162.04,1661.65 1161.80,1661.32 1172.48,1654.04 1173.17,1655.07 1174.42,1656.92 1160.36,1666.26 1160.02,1668.08 1159.47,1669.96 1158.83,1671.32 1157.91,1672.75 1156.88,1674.13 1155.88,1675.10 1153.90,1676.67 1152.49,1677.47 1151.09,1678.05 1149.74,1678.49 1148.26,1678.82 1146.64,1678.88 1144.94,1678.71 1143.33,1678.43 1141.99,1678.05 1140.75,1677.47 1139.93,1677.01 1139.49,1677.33 1138.57,1676.14"/>
    <poly id="183087989#2" type="sport" color="79,230,125" fill="1" layer="-2.00" shape="1138.57,1676.14 1124.45,1655.65 1143.93,1642.92 1146.54,1641.00 1157.37,1657.03 1160.92,1662.31 1162.04,1661.65 1161.80,1661.32 1172.48,1654.04 1173.17,1655.07 1174.42,1656.92 1160.36,1666.26 1160.02,1668.08 1159.47,1669.96 1158.83,1671.32 1157.91,1672.75 1156.88,1674.13 1155.88,1675.10 1153.90,1676.67 1152.49,1677.47 1151.09,1678.05 1149.74,1678.49 1148.26,1678.82 1146.64,1678.88 1144.94,1678.71 1143.33,1678.43 1141.99,1678.05 1140.75,1677.47 1139.93,1677.01 1139.49,1677.33 1138.57,1676.14"/>
    <poly id="192944872" type="amenity" color="237,199,199" fill="0" layer="-1.00" shape="661.42,1636.61 619.32,1594.57 620.98,1592.53 623.54,1589.39"/>
    <poly id="192944872#1" type="building" color="255,230,230" fill="0" layer="-1.00" shape="661.42,1636.61 619.32,1594.57 620.98,1592.53 623.54,1589.39"/>
    <poly id="192944873" type="building" color="255,230,230" fill="1" layer="-1.00" shape="645.21,1591.56 649.85,1599.16 707.58,1563.66 704.54,1555.36 701.30,1557.34 670.62,1576.06 669.96,1575.14 669.63,1574.69 671.34,1573.63 654.77,1552.21 689.09,1521.86 691.56,1519.72 687.71,1509.15 651.25,1541.38 653.36,1544.10 650.51,1546.52 648.54,1544.15 644.59,1539.05 643.40,1537.50 636.51,1543.03 638.16,1545.16 663.71,1578.35 665.42,1577.31 666.39,1578.64 645.21,1591.56"/>
    <poly id="192944873#1" type="tourism" color="207,245,201" fill="1" layer="-2.00" shape="645.21,1591.56 649.85,1599.16 707.58,1563.66 704.54,1555.36 701.30,1557.34 670.62,1576.06 669.96,1575.14 669.63,1574.69 671.34,1573.63 654.77,1552.21 689.09,1521.86 691.56,1519.72 687.71,1509.15 651.25,1541.38 653.36,1544.10 650.51,1546.52 648.54,1544.15 644.59,1539.05 643.40,1537.50 636.51,1543.03 638.16,1545.16 663.71,1578.35 665.42,1577.31 666.39,1578.64 645.21,1591.56"/>
    <poly id="198342707" type="residential" color="235,235,227" fill="1" layer="-3.00" shape="606.95,394.49 621.17,394.72 680.43,395.13 699.39,395.41 661.33,357.91 641.58,358.24 606.95,394.49"/>
    <poly id="198342708" type="building" color="255,230,230" fill="1" layer="-1.00" shape="663.06,503.67 655.95,511.29 659.72,511.21 675.26,510.89 675.98,510.16 680.84,505.25 677.80,502.37 677.01,503.20 674.00,500.40 674.82,499.53 671.31,496.18 670.66,495.49 667.73,498.61 668.75,499.51 663.88,504.52 663.06,503.67"/>
    <poly id="198342710" type="building" color="255,230,230" fill="1" layer="-1.00" shape="952.23,394.16 863.55,394.92 815.89,395.42 829.35,381.80 877.63,330.53 898.09,330.66 940.76,380.71 952.23,394.16"/>
    <poly id="198342711" type="building" color="255,230,230" fill="1" layer="-1.00" shape="696.05,427.46 686.01,437.52 685.12,436.60 678.89,442.66 685.23,448.92 686.14,448.01 696.54,458.25 701.66,452.99 697.97,449.30 704.36,442.86 697.81,436.29 701.33,432.72 696.05,427.46"/>
    <poly id="198342714" type="building" color="255,230,230" fill="1" layer="-1.00" shape="624.96,473.86 632.47,481.24 647.35,495.78 647.62,496.07 651.64,491.82 636.74,477.07 629.16,469.57 630.70,468.00 630.56,463.95 634.55,463.94 643.97,454.44 642.17,452.63 653.78,440.83 653.75,433.12 645.86,433.11 645.84,437.33 638.04,437.26 611.03,437.03 603.34,436.96 603.29,432.73 594.96,432.62 594.89,440.86 606.54,452.17 604.73,454.09 614.81,464.05 616.85,463.96 618.94,463.85 619.02,468.14 624.96,473.86"/>
    <poly id="198342718" type="residential" color="235,235,227" fill="1" layer="-3.00" shape="392.42,260.27 392.78,232.95 455.90,172.25 477.43,172.05 539.01,234.93 539.18,253.69 475.33,319.48 450.52,317.51 392.42,260.27"/>
    <poly id="198342721" type="building" color="255,230,230" fill="1" layer="-1.00" shape="649.95,365.74 621.17,394.72 606.95,394.49 641.58,358.24 661.33,357.91 699.39,395.41 680.43,395.13 649.95,365.74"/>
    <poly id="198342722" type="building" color="255,230,230" fill="1" layer="-1.00" shape="652.85,496.81 648.35,501.50 653.97,506.86 658.48,502.17 652.85,496.81"/>
    <poly id="198347641" type="leisure" color="207,245,201" fill="1" layer="-2.00" shape="821.84,423.37 825.14,423.38 945.41,424.06 945.46,424.85 925.05,445.46 885.81,485.10 882.02,481.45 870.40,470.23 821.84,423.37"/>
    <poly id="198347643" type="amenity" color="237,199,199" fill="1" layer="-1.00" shape="863.82,507.57 878.75,492.30 883.62,487.33 885.81,485.10 882.02,481.45 870.40,470.23 821.84,423.37 790.68,423.53 790.26,423.94 786.23,427.94 785.44,428.73 783.94,430.21 784.17,448.85 784.20,450.50 785.82,452.07 843.08,507.66 853.39,507.62 863.82,507.57"/>
    <poly id="198365448" type="building" color="255,230,230" fill="1" layer="-1.00" shape="445.87,447.02 443.75,450.39 440.93,450.39 441.01,459.91 447.48,459.85 447.47,455.80 456.39,455.67 469.45,467.89 475.60,461.57 477.61,459.52 483.25,453.76 485.65,451.31 486.06,450.87 490.87,455.59 500.61,462.13 499.06,464.44 499.14,464.52 500.84,466.18 501.96,467.27 504.13,469.41 506.63,466.86 509.02,464.39 506.63,462.79 504.96,463.34 503.23,462.19 505.18,459.30 506.93,456.69 459.10,424.61 457.92,426.35 449.29,420.56 447.02,420.54 444.74,424.23 443.21,423.29 433.35,439.30 434.87,440.25 437.99,442.16 442.96,445.22 445.73,446.94 445.87,447.02"/>
    <poly id="198365448#1" type="tourism" color="207,245,201" fill="1" layer="-2.00" shape="445.87,447.02 443.75,450.39 440.93,450.39 441.01,459.91 447.48,459.85 447.47,455.80 456.39,455.67 469.45,467.89 475.60,461.57 477.61,459.52 483.25,453.76 485.65,451.31 486.06,450.87 490.87,455.59 500.61,462.13 499.06,464.44 499.14,464.52 500.84,466.18 501.96,467.27 504.13,469.41 506.63,466.86 509.02,464.39 506.63,462.79 504.96,463.34 503.23,462.19 505.18,459.30 506.93,456.69 459.10,424.61 457.92,426.35 449.29,420.56 447.02,420.54 444.74,424.23 443.21,423.29 433.35,439.30 434.87,440.25 437.99,442.16 442.96,445.22 445.73,446.94 445.87,447.02"/>
    <poly id="198365449" type="parking" color="184,184,179" fill="1" layer="-1.00" shape="453.62,393.34 476.11,393.19 479.00,383.43 482.61,380.44 484.05,380.17 486.40,381.18 488.90,375.49 482.93,369.85 474.06,361.04 468.90,361.13 454.58,391.32 453.62,393.34"/>
    <poly id="198365450" type="residential" color="235,235,227" fill="1" layer="-3.00" shape="536.03,393.13 556.45,393.83 576.86,394.54 627.99,345.80 626.86,320.79 563.28,260.12 543.78,262.13 484.03,323.86 485.12,343.96 536.03,393.13"/>
    <poly id="198365451" type="leisure" color="207,245,201" fill="1" layer="-2.00" shape="641.07,469.42 655.51,482.94 682.12,454.72 667.69,441.21 641.07,469.42"/>
    <poly id="198365451#1" type="sport" color="79,230,125" fill="1" layer="-2.00" shape="641.07,469.42 655.51,482.94 682.12,454.72 667.69,441.21 641.07,469.42"/>
    <poly id="198365454" type="building" color="255,230,230" fill="1" layer="-1.00" shape="557.34,390.31 615.98,332.91 556.69,274.92 497.13,332.67 557.34,390.31"/>
    <poly id="198365456" type="leisure" color="207,245,201" fill="1" layer="-2.00" shape="643.64,389.40 643.83,385.60 645.60,383.57 653.46,383.72 655.94,385.71 655.75,389.96 643.64,389.40"/>
    <poly id="198365456#1" type="sport" color="79,230,125" fill="1" layer="-2.00" shape="643.64,389.40 643.83,385.60 645.60,383.57 653.46,383.72 655.94,385.71 655.75,389.96 643.64,389.40"/>
    <poly id="198437123" type="leisure" color="207,245,201" fill="1" layer="-2.00" shape="703.24,554.66 722.49,554.52 722.53,549.82 722.77,518.99 722.81,513.60 703.53,513.32 691.31,525.73 691.69,543.38 703.24,554.66"/>
    <poly id="198437123#1" type="sport" color="79,230,125" fill="1" layer="-2.00" shape="703.24,554.66 722.49,554.52 722.53,549.82 722.77,518.99 722.81,513.60 703.53,513.32 691.31,525.73 691.69,543.38 703.24,554.66"/>
    <poly id="198437130" type="tourism" color="207,245,201" fill="1" layer="-2.00" shape="471.54,312.45 514.16,265.57 512.06,230.26 482.51,258.18 412.79,262.91 407.44,268.81 452.92,311.50 471.54,312.45"/>
    <poly id="198437131" type="leisure" color="207,245,201" fill="1" layer="-2.00" shape="726.56,554.00 724.08,552.68 722.53,549.82 722.77,518.99 724.37,516.07 727.72,514.25 738.29,513.90 741.63,515.69 742.83,519.00 743.32,548.93 742.01,552.07 738.63,553.92 726.56,554.00"/>
    <poly id="198437131#1" type="sport" color="79,230,125" fill="1" layer="-2.00" shape="726.56,554.00 724.08,552.68 722.53,549.82 722.77,518.99 724.37,516.07 727.72,514.25 738.29,513.90 741.63,515.69 742.83,519.00 743.32,548.93 742.01,552.07 738.63,553.92 726.56,554.00"/>
    <poly id="198437134" type="building" color="255,230,230" fill="1" layer="-1.00" shape="746.20,548.63 756.05,548.61 756.04,540.12 761.80,540.11 761.81,548.70 771.92,548.67 771.89,531.02 771.13,531.03 771.12,528.12 771.97,528.11 771.94,511.29 771.21,511.29 771.20,508.30 772.04,508.30 772.01,490.91 771.23,490.90 771.23,487.91 772.15,487.92 772.12,471.16 762.21,471.19 762.23,487.54 756.38,487.55 756.35,471.25 746.31,471.28 746.35,487.66 747.32,487.66 747.32,490.69 746.33,490.69 746.36,508.13 747.16,508.12 747.16,511.14 746.24,511.14 746.27,527.94 747.15,527.94 747.15,531.15 746.17,531.15 746.20,548.63"/>
    <poly id="198437142" type="amenity" color="237,199,199" fill="1" layer="-1.00" shape="708.94,562.97 689.74,544.21 689.26,524.38 749.35,464.20 759.36,464.05 769.56,463.90 789.13,482.82 785.92,486.75 785.66,524.20 785.40,562.72 780.33,562.73 708.94,562.97"/>
    <poly id="198445451" type="leisure" color="207,245,201" fill="1" layer="-2.00" shape="678.05,461.74 668.71,471.69 679.20,481.46 688.54,471.51 678.05,461.74"/>
    <poly id="198445451#1" type="sport" color="79,230,125" fill="1" layer="-2.00" shape="678.05,461.74 668.71,471.69 679.20,481.46 688.54,471.51 678.05,461.74"/>
    <poly id="198445456" type="leisure" color="207,245,201" fill="1" layer="-2.00" shape="669.70,492.01 677.43,484.07 666.39,473.40 658.66,481.34 669.70,492.01"/>
    <poly id="198445456#1" type="sport" color="79,230,125" fill="1" layer="-2.00" shape="669.70,492.01 677.43,484.07 666.39,473.40 658.66,481.34 669.70,492.01"/>
    <poly id="198445465" type="building" color="255,230,230" fill="1" layer="-1.00" shape="652.08,296.02 686.41,329.85 675.47,340.88 641.13,307.05 649.52,298.60 652.08,296.02"/>
    <poly id="198445470" type="tourism" color="207,245,201" fill="1" layer="-2.00" shape="779.65,247.05 790.16,237.20 851.14,301.78 840.64,311.62 779.65,247.05"/>
    <poly id="198464694" type="building" color="255,230,230" fill="1" layer="-1.00" shape="388.59,277.01 383.17,277.12 379.04,277.20 379.01,284.72 379.00,286.27 378.67,286.59 370.23,295.06 371.09,295.91 374.21,298.99 392.73,281.05 388.59,277.01"/>
    <poly id="198464695" type="amenity" color="237,199,199" fill="1" layer="-1.00" shape="476.11,393.19 482.13,393.11 507.17,393.25 488.90,375.49 486.40,381.18 484.05,380.17 482.61,380.44 479.00,383.43 476.11,393.19"/>
    <poly id="198464696" type="building" color="255,230,230" fill="1" layer="-1.00" shape="547.84,371.90 582.95,337.61 556.68,309.71 520.70,347.13 547.84,371.90"/>
    <poly id="198464697" type="building" color="255,230,230" fill="1" layer="-1.00" shape="339.50,335.99 341.56,338.01 346.69,343.01 348.08,344.37 354.68,339.42 345.16,330.24 341.46,326.67 331.25,316.81 330.24,317.85 325.71,322.51 329.60,326.31 330.70,327.40 332.68,329.33 337.24,333.79 339.50,335.99"/>
    <poly id="198464700" type="landuse" color="194,194,130" fill="1" layer="-3.00" shape="408.16,334.08 429.59,317.42 421.02,309.01 418.65,310.78 411.47,316.30 409.58,317.74 397.43,327.03 396.36,327.83 405.26,336.32 406.00,335.74 408.16,334.08"/>
    <poly id="198464701" type="building" color="255,230,230" fill="1" layer="-1.00" shape="399.23,351.92 402.72,355.40 408.54,361.19 417.27,369.85 428.89,357.88 439.60,346.84 439.20,326.84 431.59,319.38 429.59,317.42 408.16,334.08 406.00,335.74 406.97,336.72 395.64,348.35 399.23,351.92"/>
    <poly id="198464702" type="building" color="255,230,230" fill="1" layer="-1.00" shape="377.76,285.72 376.87,284.85 371.99,280.15 369.12,277.39 364.58,282.15 361.01,285.90 369.51,294.34 377.76,285.72"/>
    <poly id="198464704" type="building" color="255,230,230" fill="1" layer="-1.00" shape="409.58,317.74 411.47,316.30 418.65,310.78 421.02,309.01 419.40,307.40 411.38,299.46 409.19,301.56 408.89,301.84 407.26,303.41 404.06,306.48 402.47,307.93 390.24,319.74 397.43,327.03 409.58,317.74"/>
    <poly id="198464705" type="leisure" color="207,245,201" fill="1" layer="-2.00" shape="352.98,330.76 362.55,320.74 367.55,325.48 357.98,335.50 352.98,330.76"/>
    <poly id="198464705#1" type="sport" color="79,230,125" fill="1" layer="-2.00" shape="352.98,330.76 362.55,320.74 367.55,325.48 357.98,335.50 352.98,330.76"/>
    <poly id="198464706" type="building" color="255,230,230" fill="1" layer="-1.00" shape="390.65,379.06 397.53,385.91 399.53,387.90 406.23,381.09 415.71,371.43 417.27,369.85 408.54,361.19 402.72,355.40 385.08,373.47 390.65,379.06"/>
    <poly id="198464707" type="building" color="255,230,230" fill="1" layer="-1.00" shape="371.09,295.91 370.23,295.06 369.51,294.34 361.01,285.90 359.22,287.76 356.53,290.55 346.16,301.32 336.00,311.87 331.25,316.81 341.46,326.67 371.09,295.91"/>
    <poly id="198464708" type="tourism" color="207,245,201" fill="1" layer="-2.00" shape="321.89,389.41 322.91,390.39 335.68,376.96 342.59,377.01 375.02,377.22 379.93,377.25 392.99,390.25 394.15,389.14 397.53,385.91 390.65,379.06 385.08,373.47 402.72,355.40 399.23,351.92 395.64,348.35 406.97,336.72 406.00,335.74 405.26,336.32 403.17,337.92 387.63,322.30 390.24,319.74 402.47,307.93 399.99,305.43 390.22,314.97 382.42,307.01 377.66,311.49 380.71,314.70 355.84,340.54 354.68,339.42 348.08,344.37 347.13,345.08 347.43,345.39 338.59,352.23 333.94,355.87 329.30,359.49 328.94,359.07 320.33,365.49 318.53,366.84 325.33,373.43 320.96,377.92 315.59,383.44 321.89,389.41"/>
    <poly id="198464709" type="building" color="255,230,230" fill="1" layer="-1.00" shape="342.48,392.02 367.65,392.19 374.92,392.24 395.11,392.35 392.99,390.25 379.93,377.25 375.02,377.22 342.59,377.01 335.68,376.96 322.91,390.39 321.52,391.85 342.48,392.02"/>
    <poly id="198464710" type="building" color="255,230,230" fill="1" layer="-1.00" shape="399.99,305.43 402.47,307.93 404.06,306.48 407.26,303.41 408.89,301.84 409.19,301.56 411.38,299.46 408.66,296.77 407.92,296.03 406.87,294.99 405.86,294.00 402.44,290.62 401.11,289.30 399.04,291.26 394.23,295.81 392.29,297.66 382.42,307.01 390.22,314.97 399.99,305.43"/>
    <poly id="198464711" type="building" color="255,230,230" fill="1" layer="-1.00" shape="374.21,298.99 382.42,307.01 392.29,297.66 394.23,295.81 399.04,291.26 401.11,289.30 397.05,285.32 392.73,281.05 374.21,298.99"/>
    <poly id="198464711#1" type="shop" color="237,199,255" fill="1" layer="-1.00" shape="374.21,298.99 382.42,307.01 392.29,297.66 394.23,295.81 399.04,291.26 401.11,289.30 397.05,285.32 392.73,281.05 374.21,298.99"/>
    <poly id="198464712" type="building" color="255,230,230" fill="1" layer="-1.00" shape="371.99,280.15 376.87,284.85 377.76,285.72 378.67,286.59 379.00,286.27 379.01,284.72 379.04,277.20 372.93,277.31 371.29,277.35 369.12,277.39 371.99,280.15"/>
    <poly id="199588402" type="building" color="255,230,230" fill="1" layer="-1.00" shape="556.45,393.83 536.03,393.13 485.12,343.96 484.03,323.86 543.78,262.13 563.28,260.12 626.86,320.79 627.99,345.80 576.86,394.54 556.45,393.83"/>
    <poly id="206811430" type="building" color="255,230,230" fill="1" layer="-1.00" shape="307.47,443.88 300.28,449.09 307.69,460.97 309.90,464.54 315.27,473.16 316.33,474.85 323.44,467.42 324.80,466.01 315.74,451.48 315.21,450.62 312.78,452.41 307.47,443.88"/>
    <poly id="206811435" type="tourism" color="207,245,201" fill="1" layer="-2.00" shape="757.45,355.54 758.56,354.50 756.75,352.65 754.93,350.42 754.69,347.97 756.01,345.73 757.35,344.82 757.54,340.80 745.65,340.68 743.22,342.56 757.45,355.54"/>
    <poly id="206811438" type="tourism" color="207,245,201" fill="1" layer="-2.00" shape="761.04,354.84 762.38,353.33 763.49,351.53 764.57,349.00 764.55,347.22 763.41,345.44 761.83,344.33 761.57,340.76 773.47,340.27 775.49,341.97 762.07,355.90 761.04,354.84"/>
    <poly id="206811440" type="building" color="255,230,230" fill="1" layer="-1.00" shape="316.57,436.72 321.19,441.17 320.25,442.12 322.56,444.36 317.52,449.62 315.74,451.48 324.80,466.01 335.68,454.67 337.42,452.86 336.76,432.67 331.79,428.23 322.24,419.74 298.16,419.71 298.30,423.59 304.62,433.59 306.75,432.46 310.20,430.64 316.57,436.72"/>
    <poly id="206811443" type="leisure" color="207,245,201" fill="1" layer="-2.00" shape="306.75,432.46 304.62,433.59 298.30,423.59 298.16,419.71 288.63,419.64 278.82,419.58 278.80,429.11 278.80,433.58 278.15,434.07 272.97,434.03 272.94,437.97 270.48,439.82 258.14,439.73 275.35,467.42 270.68,470.70 261.49,477.33 265.70,484.01 269.96,490.77 285.99,479.50 297.99,472.28 295.63,468.57 288.18,456.65 300.28,449.09 307.47,443.88 312.78,452.41 315.21,450.62 315.74,451.48 317.52,449.62 306.75,432.46"/>
    <poly id="207977620" type="building" color="255,230,230" fill="1" layer="-1.00" shape="391.78,1652.80 418.23,1615.57 397.63,1615.22 392.99,1621.75 378.61,1641.98 361.46,1666.12 378.40,1671.63 391.78,1652.80"/>