<?xml version="1.0" encoding="UTF-8"?>

<routes xmlns:xsi="http://www.w3.org/2001/XMLSchema-instance" xsi:noNamespaceSchemaLocation="http://sumo.dlr.de/xsd/routes_file.xsd">
   <vType id="EV1" vClass="passenger" accel="2.6" decel="4.5" sigma="0.5" length="5" minGap="2.5" emissionClass="Energy/unknown">
        <param key="has.rerouting.device" value="true"/>   
        <param key="has.battery.device" value="true"/>   
        <param key="maximumBatteryCapacity" value="2200"/> <!--ACTUALCAPACITY INICIAL = MAXCAPACITY / 2 / -->
        <param key="maximumPower" value="1000"/>
        <param key="vehicleMass" value="1700"/>
        <param key="frontSurfaceArea" value="5"/>
        <param key="airDragCoefficient" value="0.6"/>
        <param key="internalMomentOfInertia" value="0.01"/>
        <param key="radialDragCoefficient" value="0.5"/>
        <param key="rollDragCoefficient" value="0.01"/>
    	<param key="constantPowerIntake" value="100"/>
        <param key="propulsionEfficiency" value="0.9"/>
        <param key="recuperationEfficiency" value="0.9"/>
        <param key="stoppingTreshold" value="0.1"/> 
   </vType> 
   <vType id="passenger" vClass="passenger" accel="2.6" decel="4.5" sigma="0.5" length="5" minGap="2.5" emissionClass="Energy/unknown">
        <param key="has.rerouting.device" value="true"/>   
        <param key="has.battery.device" value="true"/>   
        <param key="maximumBatteryCapacity" value="90000"/> <!--ACTUALCAPACITY INICIAL = MAXCAPACITY / 2 / -->
        <param key="maximumPower" value="1000"/>
        <param key="vehicleMass" value="100"/>
        <param key="frontSurfaceArea" value="5"/>
        <param key="airDragCoefficient" value="0.6"/>
        <param key="internalMomentOfInertia" value="0.01"/>
        <param key="radialDragCoefficient" value="0.5"/>
        <param key="rollDragCoefficient" value="0.01"/>
    	<param key="constantPowerIntake" value="100"/>
        <param key="propulsionEfficiency" value="0.9"/>
        <param key="recuperationEfficiency" value="0.9"/>
        <param key="stoppingTreshold" value="0.1"/> 
   </vType> 
   
   <flow id="0" from="322220668#7" to="295215800#3" begin="0" end="1" number="1" type="passenger" via="322220668#7 310929460#0 310929460#1 310929460#2 310929460#3 466765995#6 466765995#7 466765995#8 274322569#16 274322569#17 274322569#18 274322569#19 274322569#20 41381596#7 41381596#8 41381596#9 41381596#10 310929460#0 310929460#1 310929460#2 310929460#3 310929460#4 310929460#5 310929460#6 310929460#7 310929460#8 310929463#0 310929463#1 310929463#2 310929463#3 310929463#4 310929463#5 310929463#6 310929463#7 310929463#8 310929463#9 310929463#10 310929463#11 310929463#12 158448803#0 158448803#1 158448803#2 237927191#3 237927191#4 237927191#5 237927191#6 251551147 547440868 404402518#0 404402518#1 404402518#2 404402518#3 547440867#0 547440867#1 547440867#2 404402533#0 404402533#1 404402533#2 547440866#0 547440866#1 547440866#2 547440866#3 217583603#0 217583603#1 217583603#2 31266877#0 31266877#1 31266877#2 31266877#3 31266877#4 31266877#5 31266877#6 31266877#7 31266877#8 31266877#9 649028027 31266882 217583630#0 217583630#1 237506960#0 237506960#1 651188790 251551141#0 251551141#1 251551147 547440868 404402518#0 404402518#1 404402518#2 404402518#3 547440867#0 547440867#1 547440867#2 404402533#0 404402533#1 404402533#2 401636130 649028027 255327548#0 255327548#1 255327548#2 255327548#3 255327548#4 303238118#0 303238118#1 303238118#2 303238118#3 552149488#0 552149488#1 253456738#0 253456738#1 253456738#2 253456738#3 253456738#4 253456738#5 253456739#0 253456739#1 253456739#2 253456739#3 253456739#4 466765993#0 466765993#1 531033554#0 531033554#1 531033554#2 310929458#0 310929458#1 253456730#0 253456730#1 253456730#2 253456730#3 440773129 440773128#0 440773128#1 440773128#2 440773128#3 440773128#4 450369489#7 450369489#8 450369489#9 450369489#10 440740426#0 440740426#1 440740426#2 440740426#3 440740415#0 440740415#1 440740415#2 440740415#3 440740415#4 440740415#5 440740415#6 466762669#0 466762669#1 466762669#2 466762669#3 466762669#4 466762669#5 466762669#6 466762669#7 467614290#0 467614290#1 467614290#2 467614290#3 467614290#4 310929461#0 310929461#1 310929461#2 310929461#3 310929461#4 440732038#0 440732038#1 542287061#0 542287061#1 542287061#2 542287061#3 440740418#0 440740418#1 440740418#2 440740418#3 251551138#0 251551138#1 251551138#2 251551138#3 440740415#4 440740415#5 440740415#6 466762669#0 466762669#1 466762669#2 466762669#3 466762669#4 466762669#5 466762669#6 466762669#7 467614290#0 467614290#1 467614290#2 467614290#3 467614290#4 310929460#0 310929460#1 310929460#2 310929460#3 310929460#4 310929460#5 310929460#6 310929460#7 310929460#8 310929462#0 310929462#1 310929462#2 310929462#3 237657751#0 237657751#1 237657751#2 237657751#3 237521096#5 237521096#6 237521096#7 237521096#8 149178302#13 149178302#14 149178302#15 149178302#16 149178302#17 566541728#0 566541728#1 566541728#2 566541728#3 237657747#0 237657747#1 237657747#2 237657747#3 237657747#4 466765994#0 466765994#1 466765994#2 466765994#3 237787030#0 237787030#1 237787030#2 237787030#3 255327542 440740416#0 440740416#1 440740416#2 440740416#3 264731314#0 264731314#1 264731314#2 531033554#0 531033554#1 531033554#2 310929458#0 310929458#1 253456730#0 253456730#1 253456730#2 253456730#3 440773129 440773128#0 440773128#1 440773128#2 440773128#3 440773128#4 450369489#7 450369489#8 450369489#9 450369489#10 440740426#0 440740426#1 440740426#2 440740426#3 440740415#0 440740415#1 440740415#2 440740415#3 440740415#4 440740415#5 440740415#6 466762669#0 466762669#1 466762669#2 466762669#3 466762669#4 466762669#5 466762669#6 466762669#7 467614290#0 467614290#1 467614290#2 467614290#3 467614290#4 310929461#0 310929461#1 310929461#2 310929461#3 310929461#4 542287063 237787030#0 237787030#1 237787030#2 237787030#3 237715978#0 237715978#1 237715978#2 237715978#3 237521096#0 237521096#1 237521096#2 237521096#3 237521096#4 237657751#4 237657751#5 237657751#6 237657751#7 237657751#8 253456741#0 253456741#1 253456740#0 253456740#1 253456740#2 253456740#3 -239562114#2 -239562114#1 -239562114#0 239562113#0 239562113#1 239562113#2 239562113#3 239562113#4 239562113#5 239562113#6 423899017#7 423899017#8 423899017#9 423899017#10 423899017#11 423899017#12 423899017#13 423899017#14 423899017#15 566541727 685958429 255327593#0 255327589#0 255327589#1 255327589#2 255327589#3 255327589#4 255327589#5 255327589#6 255327589#7 255327589#8 255327589#9 255327589#10 255327589#11 255327589#12 303238118#0 303238118#1 303238118#2 303238118#3 552149488#0 552149488#1 253456738#0 253456738#1 253456738#2 253456738#3 253456738#4 253456738#5 253456739#0 253456739#1 253456739#2 253456739#3 253456739#4 466765993#0 466765993#1 531033554#0 531033554#1 531033554#2 310929458#0 310929458#1 253456730#0 253456730#1 253456730#2 253456730#3 440773129 440773128#0 440773128#1 440773128#2 440773128#3 440773128#4 450369489#7 450369489#8 450369489#9 450369489#10 440740427#0 440740427#1 440788937#0 440788937#1 440740425 440788939#0 440788939#1 255327563#0 255327563#1 273302701#0 273302701#1 273302701#2 253456736#0 253456736#1 253456736#2 253456735#0 253456735#1 253456735#2 253456735#3 253456735#4 253456741#0 253456741#1 253456740#0 253456740#1 253456740#2 253456740#3 -239562114#2 -239562114#1 -239562114#0 239562113#0 239562113#1 239562113#2 239562113#3 239562113#4 239562113#5 239562113#6 423899017#7 423899017#8 423899017#9 423899017#10 423899017#11 423899017#12 423899017#13 423899017#14 423899017#15 566541727 310929470#0 310929470#1 547440864#0 547440864#1 158959866#0 158959866#1 158959866#2 158959866#3 158959866#4 158959866#5 547440865#0 547440865#1 547440865#2 547440865#3 547440863#0 547440863#1 31266877#0 31266877#1 31266877#2 31266877#3 31266877#4 31266877#5 31266877#6 31266877#7 31266877#8 31266877#9 649028027 255327548#0 255327548#1 255327548#2 255327548#3 255327548#4 303238118#0 303238118#1 303238118#2 303238118#3 552149488#0 552149488#1 253456738#0 253456738#1 253456738#2 253456738#3 253456738#4 253456738#5 253456739#0 253456739#1 253456739#2 253456739#3 253456739#4 466765993#0 466765993#1 531033553#0 531033553#1 531033553#2 301799831#0 301799831#1 301799831#2 301799831#3 239562115#0 239562115#1 239562115#2 239562115#3 239562115#4 466768186#0 466768186#1 555462044#0 555462044#1 555462044#2 555462043#0 555462043#1 555462043#2 555462043#3 555462043#4 555462043#5 555462043#6 239562116#0 239562116#1 239562116#2 239562116#3 253456733#0 253456733#1 253456733#2 466765992 555462042 253456734#0 253456734#1 253456734#2 253456734#3 253456734#4 253456734#5 253456734#6 237715974#0 237715974#1 237715974#2 237715974#3 466765995#0 466765995#1 466765995#2 466765995#3 466765995#4 466765995#5 310929460#4 310929460#5 310929460#6 310929460#7 310929460#8 310929462#0 310929462#1 310929462#2 310929462#3 237657747#0 237657747#1 237657747#2 237657747#3 237657747#4 466765994#0 466765994#1 466765994#2 466765994#3 237787030#0 237787030#1 237787030#2 237787030#3 237715978#0 237715978#1 237715978#2 237715978#3 237715974#0 237715974#1 237715974#2 237715974#3 466765995#0 466765995#1 466765995#2 466765995#3 466765995#4 466765995#5 466765995#6 466765995#7 466765995#8 295215800#0 295215800#1 295215800#2 295215800#3"/>
   <flow id="1" from="239562113#1" to="273302701#1" begin="0" end="1" number="1" type="passenger" via="239562113#1 239562113#2 239562113#3 239562113#4 239562113#5 239562113#6 423899017#7 423899017#8 423899017#9 423899017#10 423899017#11 423899017#12 423899017#13 423899017#14 423899017#15 566541727 310929470#0 310929470#1 547440864#0 547440864#1 158959866#0 158959866#1 158959866#2 158959866#3 158959866#4 158959866#5 547440865#0 547440865#1 547440865#2 547440865#3 547440863#0 547440863#1 31266877#0 31266877#1 31266877#2 31266877#3 31266877#4 31266877#5 31266877#6 31266877#7 31266877#8 31266877#9 649028027 255327548#0 255327548#1 255327548#2 255327548#3 255327548#4 303238118#0 303238118#1 303238118#2 303238118#3 552149488#0 552149488#1 253456738#0 253456738#1 253456738#2 253456738#3 253456738#4 253456738#5 253456739#0 253456739#1 253456739#2 253456739#3 253456739#4 466765993#0 466765993#1 531033553#0 531033553#1 531033553#2 301799831#0 301799831#1 301799831#2 301799831#3 239562115#0 239562115#1 239562115#2 239562115#3 239562115#4 466768186#0 466768186#1 555462044#0 555462044#1 555462044#2 555462043#0 555462043#1 555462043#2 555462043#3 555462043#4 555462043#5 555462043#6 239562116#0 239562116#1 239562116#2 239562116#3 253456733#0 253456733#1 253456733#2 466765992 555462042 253456734#0 253456734#1 253456734#2 253456734#3 253456734#4 253456734#5 253456734#6 237521096#0 237521096#1 237521096#2 237521096#3 237521096#4 237521096#5 237521096#6 237521096#7 237521096#8 237521096#9 237521096#10 237521096#11 237521096#12 237521096#13 237521100#0 237521100#1 237521100#2 255327558#0 255327558#1 255327558#2 255327558#3 552149488#0 552149488#1 253456738#0 253456738#1 253456738#2 149178302#2 149178302#3 149178302#4 149178302#5 149178302#6 253456735#8 253456735#9 253456735#10 253456735#11 255327558#0 255327558#1 255327558#2 255327558#3 552149488#0 552149488#1 253456738#0 253456738#1 253456738#2 253456738#3 253456738#4 253456738#5 253456739#0 253456739#1 253456739#2 253456739#3 253456739#4 466765993#0 466765993#1 531033554#0 531033554#1 531033554#2 310929458#0 310929458#1 253456730#0 253456730#1 253456730#2 253456730#3 440773129 440773128#0 440773128#1 440773128#2 440773128#3 440773128#4 450369489#7 450369489#8 450369489#9 450369489#10 440740426#0 440740426#1 440740426#2 440740426#3 440740415#0 440740415#1 440740415#2 440740415#3 440740415#4 440740415#5 440740415#6 466762669#0 466762669#1 466762669#2 466762669#3 466762669#4 466762669#5 466762669#6 466762669#7 467614290#0 467614290#1 467614290#2 467614290#3 467614290#4 310929461#0 310929461#1 310929461#2 310929461#3 310929461#4 542287063 237787030#0 237787030#1 237787030#2 237787030#3 237715978#0 237715978#1 237715978#2 237715978#3 237521096#0 237521096#1 237521096#2 237521096#3 237521096#4 237657751#4 237657751#5 237657751#6 237657751#7 237657751#8 253456741#0 253456741#1 253456739#0 253456739#1 253456739#2 253456739#3 253456739#4 466765993#0 466765993#1 531033553#0 531033553#1 531033553#2 301799831#0 301799831#1 301799831#2 301799831#3 239562115#0 239562115#1 239562115#2 239562115#3 239562115#4 466768186#0 466768186#1 555462044#0 555462044#1 555462044#2 555462043#0 555462043#1 555462043#2 555462043#3 555462043#4 555462043#5 555462043#6 239562116#0 239562116#1 239562116#2 239562116#3 253456733#0 253456733#1 253456733#2 466765992 555462042 253456734#0 253456734#1 253456734#2 253456734#3 253456734#4 253456734#5 253456734#6 237521096#0 237521096#1 237521096#2 237521096#3 237521096#4 237521096#5 237521096#6 237521096#7 237521096#8 149178302#13 149178302#14 149178302#15 149178302#16 149178302#17 566541728#0 566541728#1 566541728#2 566541728#3 237657747#0 237657747#1 237657747#2 237657747#3 237657747#4 466765994#0 466765994#1 466765994#2 466765994#3 542287062 542287061#0 542287061#1 542287061#2 542287061#3 440740419#0 440740419#1 440740419#2 440740419#3 467614291#0 467614291#1 467614291#2 467614291#3 467614291#4 467614291#5 467614291#6 120007719#7 120007719#8 120007719#9 120007719#10 120007719#11 120007719#12 120007719#13 237927199#0 237927199#1 237927199#2 237927199#3 158967343#4 158967343#5 158967343#6 158967343#7 158967343#8 237927198#0 237927198#1 237927198#2 237927198#3 310929462#0 310929462#1 310929462#2 310929462#3 237657751#0 237657751#1 237657751#2 237657751#3 237657751#4 237657751#5 237657751#6 237657751#7 237657751#8 253456735#5 253456735#6 253456735#7 149178302#7 149178302#8 149178302#9 149178302#10 149178302#11 149178302#12 149178302#13 149178302#14 149178302#15 149178302#16 149178302#17 566541728#0 566541728#1 566541728#2 566541728#3 237657747#0 237657747#1 237657747#2 237657747#3 237657747#4 466765994#0 466765994#1 466765994#2 466765994#3 237787030#0 237787030#1 237787030#2 237787030#3 237521095#0 237521095#1 440788965 237521108#0 237521108#1 237521108#2 440788951 255327563#0 255327563#1 273302701#0 273302701#1 273302701#2 253456736#0 253456736#1 253456736#2 253456734#0 253456734#1 253456734#2 253456734#3 253456734#4 253456734#5 253456734#6 237521096#0 237521096#1 237521096#2 237521096#3 237521096#4 237521096#5 237521096#6 237521096#7 237521096#8 149178302#13 149178302#14 149178302#15 149178302#16 149178302#17 149178302#18 149178302#19 149178302#20 149178302#21 310929463#6 310929463#7 310929463#8 310929463#9 42858991#6 42858991#7 42858991#8 237715971#0 237715971#1 237715971#2 237715971#3 237715971#4 237715971#5 566541728#0 566541728#1 566541728#2 566541728#3 237657751#0 237657751#1 237657751#2 237657751#3 237657751#4 237657751#5 237657751#6 237657751#7 237657751#8 253456735#5 253456735#6 253456735#7 253456735#8 253456735#9 253456735#10 253456735#11 255327558#0 255327558#1 255327558#2 255327558#3 552149488#0 552149488#1 253456738#0 253456738#1 253456738#2 149178302#2 149178302#3 149178302#4 149178302#5 149178302#6 149178302#7 149178302#8 149178302#9 149178302#10 149178302#11 149178302#12 149178302#13 149178302#14 149178302#15 149178302#16 149178302#17 566541728#0 566541728#1 566541728#2 566541728#3 237657747#0 237657747#1 237657747#2 237657747#3 237657747#4 466765995#0 466765995#1 466765995#2 466765995#3 466765995#4 466765995#5 466765995#6 466765995#7 466765995#8 295215800#0 295215800#1 295215800#2 295215800#3 295215800#4 237927201#0 237927201#1 237927201#2 292287770#9 gneE3 41381596#0 41381596#1 41381596#2 41381596#3 41381596#4 41381596#5 41381596#6 41381596#7 41381596#8 41381596#9 41381596#10 310929460#0 310929460#1 310929460#2 310929460#3 310929460#4 310929460#5 310929460#6 310929460#7 310929460#8 310929462#0 310929462#1 310929462#2 310929462#3 237657751#0 237657751#1 237657751#2 237657751#3 237657751#4 237657751#5 237657751#6 237657751#7 237657751#8 253456741#0 253456741#1 253456739#0 253456739#1 253456739#2 253456739#3 253456739#4 466765993#0 466765993#1 531033554#0 531033554#1 531033554#2 310929458#0 310929458#1 253456730#0 253456730#1 253456730#2 253456730#3 440773129 440773128#0 440773128#1 440773128#2 440773128#3 440773128#4 450369489#7 450369489#8 450369489#9 450369489#10 440740427#0 440740427#1 440788937#0 440788937#1 440740425 440788939#0 440788939#1 255327563#0 255327563#1 273302701#0 273302701#1 273302701#2 253456736#0 253456736#1 253456736#2 253456735#0 253456735#1 253456735#2 253456735#3 253456735#4 253456741#0 253456741#1 253456740#0 253456740#1 253456740#2 253456740#3 -239562114#2 -239562114#1 -239562114#0 239562113#0 239562113#1 239562113#2 239562113#3 239562113#4 239562113#5 239562113#6 423899017#7 423899017#8 423899017#9 423899017#10 423899017#11 423899017#12 423899017#13 423899017#14 423899017#15 566541727 685958429 255327593#0 255327589#0 255327589#1 255327589#2 255327589#3 255327589#4 104692945#0 104692945#1 104692945#2 459040977 439666936#0 439666936#1 439666936#2 439666936#3 439666936#4 439666936#5 158959866#3 158959866#4 158959866#5 547440865#0 547440865#1 547440865#2 547440865#3 547440863#0 547440863#1 31266877#0 31266877#1 31266877#2 31266877#3 31266877#4 31266877#5 31266877#6 31266877#7 31266877#8 31266877#9 649028027 255327548#0 255327548#1 255327548#2 255327548#3 255327548#4 303238118#0 303238118#1 303238118#2 303238118#3 552149488#0 552149488#1 253456738#0 253456738#1 253456738#2 253456738#3 253456738#4 253456738#5 253456739#0 253456739#1 253456739#2 253456739#3 253456739#4 466765993#0 466765993#1 531033554#0 531033554#1 531033554#2 310929458#0 310929458#1 253456730#0 253456730#1 253456730#2 253456730#3 440773129 440773128#0 440773128#1 440773128#2 440773128#3 440773128#4 450369489#7 450369489#8 450369489#9 450369489#10 440740427#0 440740427#1 440788937#0 440788937#1 440740425 440788939#0 440788939#1 255327563#0 255327563#1 273302701#0 273302701#1"/>
   <flow id="2" from="253456735#2" to="440680382#1" begin="0" end="1" number="1" type="passenger" via="253456735#2 253456735#3 253456735#4 253456735#5 253456735#6 253456735#7 149178302#7 149178302#8 149178302#9 149178302#10 149178302#11 149178302#12 149178302#13 149178302#14 149178302#15 149178302#16 149178302#17 566541728#0 566541728#1 566541728#2 566541728#3 237657747#0 237657747#1 237657747#2 237657747#3 237657747#4 466765995#0 466765995#1 466765995#2 466765995#3 466765995#4 466765995#5 466765995#6 466765995#7 466765995#8 295215800#0 295215800#1 295215800#2 295215800#3 295215800#4 237927199#0 237927199#1 237927199#2 237927199#3 237927199#4 237927199#5 237927199#6 237927199#7 237927199#8 237927199#9 237927199#10 237927199#11 237927199#12 42858991#0 42858991#1 42858991#2 42858991#3 42858991#4 42858991#5 42858991#6 42858991#7 42858991#8 237715971#0 237715971#1 237715971#2 237715971#3 237715971#4 237715971#5 566541728#0 566541728#1 566541728#2 566541728#3 237657751#0 237657751#1 237657751#2 237657751#3 237657751#4 237657751#5 237657751#6 237657751#7 237657751#8 253456741#0 253456741#1 253456739#0 253456739#1 253456739#2 253456739#3 253456739#4 466765993#0 466765993#1 531033554#0 531033554#1 531033554#2 310929458#0 310929458#1 253456730#0 253456730#1 253456730#2 253456730#3 440773132#0 440773132#1 440773131#0 440773131#1 459401066#4 459401066#5 459401066#6 459401066#7 450369489#2 450369489#3 239562155#0 239562155#1 239562155#2 440773131#0 440773131#1 459401066#4 459401066#5 459401066#6 459401066#7 450369489#2 450369489#3 450369489#4 450369489#5 450369489#6 450369489#7 450369489#8 450369489#9 450369489#10 440740426#0 440740426#1 440740426#2 440740426#3 440740415#0 440740415#1 440740415#2 440740415#3 440740415#4 440740415#5 440740415#6 466762669#0 466762669#1 466762669#2 466762669#3 466762669#4 466762669#5 466762669#6 466762669#7 467614291#0 467614291#1 467614291#2 467614291#3 467614291#4 467614291#5 467614291#6 120007719#7 120007719#8 120007719#9 120007719#10 120007719#11 120007719#12 120007719#13 237927199#0 237927199#1 237927199#2 237927199#3 237927199#4 237927199#5 237927199#6 237927199#7 237927199#8 237927199#9 237927199#10 237927199#11 237927199#12 42858992#0 42858992#1 42858992#2 237927202#0 237927202#1 251551139#1 251551139#2 251551139#3 547440869#0 547440869#1 547440869#2 237927191#0 237927191#1 237927191#2 237927191#3 237927191#4 237927191#5 237927191#6 68506259#0 68506259#1 32513006#0 32513006#1 32513006#2 237715971#0 237715971#1 237715971#2 237715971#3 237715971#4 237715971#5 149178302#18 149178302#19 149178302#20 149178302#21 149178302#22 149178302#23 149178302#24 274322569#7 274322569#8 274322569#9 274322569#10 274322569#11 274322569#12 274322569#13 274322569#14 274322569#15 295215800#0 295215800#1 295215800#2 295215800#3 295215800#4 237927199#0 237927199#1 237927199#2 237927199#3 158967343#4 158967343#5 158967343#6 158967343#7 158967343#8 237927198#0 237927198#1 237927198#2 237927198#3 310929462#0 310929462#1 310929462#2 310929462#3 237657747#0 237657747#1 237657747#2 237657747#3 237657747#4 466765994#0 466765994#1 466765994#2 466765994#3 237787030#0 237787030#1 237787030#2 237787030#3 237715978#0 237715978#1 237715978#2 237715978#3 237521096#0 237521096#1 237521096#2 237521096#3 237521096#4 237657751#4 237657751#5 237657751#6 237657751#7 237657751#8 253456741#0 253456741#1 253456740#0 253456740#1 253456740#2 253456740#3 -239562114#2 -239562114#1 -239562114#0 239562113#0 239562113#1 239562113#2 239562113#3 239562113#4 239562113#5 239562113#6 423899017#7 423899017#8 423899017#9 423899017#10 423899017#11 423899017#12 423899017#13 423899017#14 423899017#15 566541727 310929470#0 310929470#1 547440864#0 547440864#1 158959866#0 158959866#1 158959866#2 158959866#3 158959866#4 158959866#5 547440865#0 547440865#1 547440865#2 547440865#3 547440863#0 547440863#1 31266877#0 31266877#1 31266877#2 31266877#3 31266877#4 31266877#5 31266877#6 31266877#7 31266877#8 31266877#9 649028027 255327548#0 255327548#1 255327548#2 255327548#3 255327548#4 303238118#0 303238118#1 303238118#2 303238118#3 552149488#0 552149488#1 253456738#0 253456738#1 253456738#2 253456738#3 253456738#4 253456738#5 253456739#0 253456739#1 253456739#2 253456739#3 253456739#4 466765993#0 466765993#1 531033553#0 531033553#1 531033553#2 301799831#0 301799831#1 301799831#2 301799831#3 239562115#0 239562115#1 239562115#2 239562115#3 239562115#4 466768186#0 466768186#1 555462044#0 555462044#1 555462044#2 423899017#0 423899017#1 423899017#2 423899017#3 423899017#4 423899017#5 423899017#6 423899017#7 423899017#8 423899017#9 423899017#10 423899017#11 423899017#12 423899017#13 423899017#14 423899017#15 566541727 310929470#0 310929470#1 547440864#0 547440864#1 158959866#0 158959866#1 158959866#2 158959866#3 158959866#4 158959866#5 547440865#0 547440865#1 547440865#2 547440865#3 547440863#0 547440863#1 31266877#0 31266877#1 31266877#2 31266877#3 31266877#4 31266877#5 31266877#6 31266877#7 31266877#8 31266877#9 649028027 31266882 217583630#0 217583630#1 237506960#0 237506960#1 651188790 251551141#0 251551141#1 68506259#0 68506259#1 237715967#0 237715967#1 237715967#2 310929464#0 310929464#1 310929464#2 310929464#3 310929464#4 310929464#5 310929464#6 237927202#0 237927202#1 251551139#1 251551139#2 251551139#3 547440869#0 547440869#1 547440869#2 237927191#0 237927191#1 237927191#2 237927191#3 237927191#4 237927191#5 237927191#6 68506259#0 68506259#1 32513006#0 32513006#1 32513006#2 237715971#0 237715971#1 237715971#2 237715971#3 237715971#4 237715971#5 566541728#0 566541728#1 566541728#2 566541728#3 237657751#0 237657751#1 237657751#2 237657751#3 237657751#4 237657751#5 237657751#6 237657751#7 237657751#8 253456741#0 253456741#1 253456739#0 253456739#1 253456739#2 253456739#3 253456739#4 466765993#0 466765993#1 531033553#0 531033553#1 531033553#2 301799831#0 301799831#1 301799831#2 301799831#3 239562115#0 239562115#1 239562115#2 239562115#3 239562115#4 466768186#0 466768186#1 555462044#0 555462044#1 555462044#2 555462043#0 555462043#1 555462043#2 555462043#3 555462043#4 555462043#5 555462043#6 239562116#0 239562116#1 239562116#2 239562116#3 253456733#0 253456733#1 253456733#2 466765992 555462042 253456734#0 253456734#1 253456734#2 253456734#3 253456734#4 253456734#5 253456734#6 237715974#0 237715974#1 237715974#2 237715974#3 466765994#0 466765994#1 466765994#2 466765994#3 542287062 542287061#0 542287061#1 542287061#2 542287061#3 440740418#0 440740418#1 440740418#2 440740418#3 251551137 703248212#0 703248212#1 440788954 440740420#0 440740420#1 440740423 440740421#0 440740421#1 440740419#0 440740419#1 440740419#2 440740419#3 467614290#0 467614290#1 467614290#2 467614290#3 467614290#4 310929460#0 310929460#1 310929460#2 310929460#3 310929460#4 310929460#5 310929460#6 310929460#7 310929460#8 310929462#0 310929462#1 310929462#2 310929462#3 237657751#0 237657751#1 237657751#2 237657751#3 237657751#4 237657751#5 237657751#6 237657751#7 237657751#8 253456741#0 253456741#1 253456739#0 253456739#1 253456739#2 253456739#3 253456739#4 466765993#0 466765993#1 531033554#0 531033554#1 531033554#2 310929459 423899016#0 423899016#1 423899016#2 328020292#0 328020292#1 328020292#2 328020292#3 328020292#4 423899896 237799273#5 423899015#0 423899015#1 gneE5 239562115#2 239562115#3 239562115#4 466768186#0 466768186#1 555462044#0 555462044#1 555462044#2 555462043#0 555462043#1 555462043#2 555462043#3 555462043#4 555462043#5 555462043#6 239562116#0 239562116#1 239562116#2 239562116#3 253456733#0 253456733#1 253456733#2 466765993#0 466765993#1 531033554#0 531033554#1 531033554#2 310929458#0 310929458#1 253456730#0 253456730#1 253456730#2 253456730#3 440773132#0 440773132#1 440773131#0 440773131#1 459401066#4 459401066#5 459401066#6 459401066#7 450369489#2 450369489#3 450369489#4 450369489#5 450369489#6 450369489#7 450369489#8 450369489#9 450369489#10 440740427#0 440740427#1 440788937#0 440788937#1 440740425 440788939#0 440788939#1 255327563#0 255327563#1 273302701#0 273302701#1 273302701#2 253456736#0 253456736#1 253456736#2 253456734#0 253456734#1 253456734#2 253456734#3 253456734#4 253456734#5 253456734#6 237521096#0 237521096#1 237521096#2 237521096#3 237521096#4 237521096#5 237521096#6 237521096#7 237521096#8 149178302#13 149178302#14 149178302#15 149178302#16 149178302#17 566541728#0 566541728#1 566541728#2 566541728#3 237657747#0 237657747#1 237657747#2 237657747#3 237657747#4 466765995#0 466765995#1 466765995#2 466765995#3 466765995#4 466765995#5 310929460#4 310929460#5 310929460#6 310929460#7 310929460#8 310929462#0 310929462#1 310929462#2 310929462#3 237657751#0 237657751#1 237657751#2 237657751#3 237657751#4 237657751#5 237657751#6 237657751#7 237657751#8 253456741#0 253456741#1 253456739#0 253456739#1 253456739#2 253456739#3 253456739#4 466765993#0 466765993#1 531033554#0 531033554#1 531033554#2 310929458#0 310929458#1 253456730#0 253456730#1 253456730#2 253456730#3 440773129 440773128#0 440773128#1 440773128#2 440773128#3 440773128#4 450369489#7 450369489#8 450369489#9 450369489#10 440740427#0 440740427#1 440788962 440680377#0 440680377#1 440680377#2 440788956 440680382#0 440680382#1"/>