<?xml version="1.0" encoding="UTF-8"?>

<routes xmlns:xsi="http://www.w3.org/2001/XMLSchema-instance" xsi:noNamespaceSchemaLocation="http://sumo.dlr.de/xsd/routes_file.xsd">
   <vType id="passenger" vClass="passenger" accel="2.2" decel="4.5" sigma="0.5" length="4" minGap="3" emissionClass="Energy/unknown">
        <param key="has.rerouting.device" value="true"/>   
        <param key="has.battery.device" value="true"/>   
   </vType> 
  
   <flow id="0" from="226319974#0" to="544614092#1" begin="0" end="1" number="1" type="passenger" via="226319974#0 226319974#1 226319974#2 226319974#3 226319974#4 226319974#5 226319974#6 309055989#0 309055989#1 309055989#2 309055989#3 309055989#4 309055989#5 309055989#6 226319964#0 226319964#1 226319964#2 226319964#3 294798016#0 294798016#1 294798016#2 294798016#3 294798016#4 294798016#5 294798016#6 294798016#7 620654337#0 620654337#1 620654337#2 620654337#3 620654185#4 620654185#5 620654185#6 4745526#0 4745526#1 4745526#2 4745526#3 549932652 248565671#0 248565671#1 552386718 549932650 552149490#0 552149490#1 250683120#0 250683120#1 116315126#0 116315126#1 553364107#0 116315088#0 116315088#1 116315088#2 116315088#3 450369487#0 450369487#1 450369487#2 450369487#3 554934617#0 554934617#1 554934617#2 450369486#0 450369486#1 450369486#2 450369486#3 450369486#4 450369486#5 450369486#6 450369486#7 450369486#8 450369486#9 450369486#10 450369486#11 544248638#2 544248638#3 544248638#4 544248638#5 544248638#6 140001510#0 140001510#1 272639450#26 272639450#27 272639450#28 272639450#29 272639450#30 272639450#31 208568872#13 208568872#14 208568872#15 208568872#16 237923123#6 237923123#7 237923123#9 226319976#0 226319976#2 226319976#3 226319976#4 226319976#5 226319976#6 226319976#7 226319976#8 226319976#9 226319976#10 226319963#0 226319963#1 226319963#2 226319963#3 226319963#4 518532065#0 518532065#1 518532065#2 550090166#0 550090166#1 68506248#0 68506248#1 68506248#2 68506248#3 68506248#4 68506248#5 68506248#6 518534109#0 518534109#1 518534109#2 237912795#6 237912795#7 237912795#8 643343575#0 643343575#1 643343575#2 643343575#3 269871711#0 269871711#1 269871711#2 269871711#3 263405142#15 263405142#16 263405142#17 263405142#18 651543581#0 651543581#1 651543581#2 550092215#0 550092215#1 550092215#2 550092215#3 550092215#4 237566138#0 237566138#1 237566138#2 237566138#4 294798014#0 294798014#1 294798014#2 294798014#3 294798014#5 68506258#0 68506258#1 68506258#2 68506258#3 68506258#4 620654185#0 620654185#1 620654185#2 620654185#3 620654337#4 620654337#5 620654338#0 620654338#1 450369485#0 450369485#1 450369484#0 450369484#1 571448018#0 571448018#1 571448018#2 450137746#0 450137746#1 450137746#2 237521092#10 237521092#11 237521092#12 237521092#13 237521092#14 450369487#0 450369487#1 450369487#2 450369487#3 313395787#0 313395787#1 313395787#2 313395787#3 248565670#3 549932652 68506263#0 68506263#1 68506263#2 68506263#3 68506263#4 68506263#5 68506263#6 226319968#0 226319968#1 544248639#0 544248639#1 226319975#0 226319975#1 226319975#2 237645205#0 237645205#1 237645205#2 284450142#2 284450142#3 284450142#4 226319974#0 226319974#1 226319974#2 226319974#3 226319974#4 226319974#5 226319974#6 309055989#0 309055989#1 309055989#2 309055989#3 309055989#4 309055989#5 309055989#6 226319963#0 226319963#1 226319963#2 226319963#3 226319963#4 518532065#0 518532065#1 518532065#2 550090166#0 550090166#1 68506248#0 68506248#1 68506248#2 68506248#3 68506248#4 68506248#5 68506248#6 518534109#0 518534109#1 518534109#2 237912795#6 237912795#7 237912795#8 237912795#9 237912795#10 237912795#11 237912795#12 237912795#13 237912796#0 237912796#1 237912796#2 237912796#3 237912796#4 237912796#5 237912796#7 237912796#8 651543581#0 651543581#1 651543581#2 550092215#0 550092215#1 550092215#2 550092215#3 550092215#4 237566138#0 237566138#1 237566138#2 237566138#4 294798014#0 294798014#1 294798014#2 294798014#3 294798014#5 68506258#0 68506258#1 68506258#2 68506258#3 68506258#4 620654185#0 620654185#1 620654185#2 620654185#3 620654337#4 620654337#5 620654338#0 620654338#1 450369485#0 450369485#1 450369484#0 450369484#1 571448018#0 571448018#1 571448018#2 450137746#0 450137746#1 450137746#2 237521092#10 237521092#11 237521092#12 237521092#13 237521092#14 116315088#4 116315088#5 116315088#6 237691685#0 237691685#1 450369490#0 450369490#1 313395786#0 313395786#1 313395786#2 313395786#3 313395786#4 313395786#5 313395786#6 313395786#7 732998299 732998300#0 732998300#1 732998300#2 732998300#3 732998300#4 531724278#0 531724278#1 531724278#2 237566136#0 237566136#1 237566136#2 237566136#3 238179151#0 238179151#1 238179151#2 238179151#3 238179151#4 238179151#5 238179151#6 238179151#7 238179151#9 238179151#10 313379179 313379191#0 313379191#1 450369488#3 450369488#4 272639450#0 272639450#1 272639450#2 313395786#4 313395786#5 313395786#6 313395786#7 732998299 732998300#0 732998300#1 732998300#2 732998300#3 732998300#4 531724278#0 531724278#1 531724278#2 526132002#0 526132002#1 526132002#2 237566142#0 237566142#1 237566142#2 237566142#3 237566142#4 237566142#6 237566142#7 454019112#0 454019112#1 454019112#2 454019112#3 454019112#4 454019112#5 454019112#6 454019112#7 454019112#8 269871711#0 269871711#1 269871711#2 4776370#1 237912796#7 237912796#8 651543581#0 651543581#1 651543581#2 550092215#0 550092215#1 550092215#2 550092215#3 550092215#4 237566138#0 237566138#1 237566138#2 237566138#4 294798014#0 294798014#1 294798014#2 294798014#3 294798014#5 68506258#0 68506258#1 68506258#2 68506258#3 68506258#4 620654185#0 620654185#1 620654185#2 620654185#3 620654185#4 620654185#5 620654185#6 4745526#0 4745526#1 4745526#2 4745526#3 549932652 68506263#0 68506263#1 68506263#2 68506263#3 68506263#4 68506263#5 68506263#6 226319968#0 226319968#1 544248639#0 544248639#1 226319975#0 226319975#1 226319975#2 284450145#1 284450145#2 284450145#3 544614092#0 544614092#1"/>
   <flow id="1" from="309896346#2" to="450369486#9" begin="0" end="1" number="1" type="passenger" via="309896346#2 309896346#3 309896346#4 544248640#2 544248640#3 544248640#4 544248640#5 284450142#2 284450142#3 284450142#4 226319974#0 226319974#1 226319974#2 226319974#3 226319974#4 226319974#5 226319974#6 309055989#0 309055989#1 309055989#2 309055989#3 309055989#4 309055989#5 309055989#6 226319963#0 226319963#1 226319963#2 226319963#3 226319963#4 518532065#0 518532065#1 518532065#2 550090166#0 550090166#1 68506248#0 68506248#1 68506248#2 263405142#12 263405142#13 263405142#14 269871711#4 269871711#5 269871711#6 269871711#7 269871711#8 269871711#9 68506255#3 68506255#4 68506255#5 68506255#6 237566138#0 237566138#1 237566138#2 237566138#4 294798014#0 294798014#1 294798014#2 294798014#3 294798014#5 68506258#0 68506258#1 68506258#2 68506258#3 68506258#4 620654185#0 620654185#1 620654185#2 620654185#3 620654185#4 620654185#5 620654185#6 4745526#0 4745526#1 4745526#2 4745526#3 549932652 68506263#0 68506263#1 68506263#2 68506263#3 68506263#4 68506263#5 68506263#6 226319968#0 226319968#1 544248639#0 544248639#1 226319975#0 226319975#1 226319975#2 284450145#1 284450145#2 284450145#3 309896346#0 309896346#1 309896346#2 309896346#3 309896346#4 309896346#5 309896346#6 309896346#7 293858820#3 293858820#4 293858820#5 307933391#0 307933391#1 307933391#2 237910181#5 544248640#0 544248640#1 544248640#2 544248640#3 544248640#4 544248640#5 284450142#2 284450142#3 284450142#4 226319974#0 226319974#1 226319974#2 226319974#3 226319974#4 226319974#5 226319974#6 309055988#0 309055988#1 309055988#2 294798016#8 294798016#9 294798016#10 294798016#11 294798016#12 294798016#13 450613274 293858819#0 284450136#3 284450136#4 284450136#5 284450136#6 314679880#0 314679880#1 314679881 552149490#0 552149490#1 250683120#0 250683120#1 116315126#0 116315126#1 553364107#0 116315088#0 116315088#1 116315088#2 116315088#3 450369487#0 450369487#1 450369487#2 450369487#3 554934617#0 554934617#1 554934617#2 450369486#0 450369486#1 450369486#2 450369486#3 450369486#4 450369486#5 450369486#6 450369486#7 226319974#3 226319974#4 226319974#5 226319974#6 309055989#0 309055989#1 309055989#2 309055989#3 272639450#17 272639450#18 272639450#19 272639450#20 272639450#21 272639450#22 272639450#23 272639450#24 272639450#25 140001510#2 140001510#3 140001510#4 226319976#4 226319976#5 226319976#6 226319976#7 226319976#8 226319976#9 226319976#10 226319964#0 226319964#1 226319964#2 226319964#3 68506235#0 68506235#1 68506235#2 68506235#3 68506235#5 68506260#0 68506260#1 68506260#2 68506260#3 546138912#0 546138912#1 546138912#2 546138912#3 313379180 313379189 313379186 450138779 313379192#0 313379192#1 313379192#2 450613277#12 450613277#13 450613277#14 450613277#15 450613277#16 313379194#0 313379194#1 313379194#2 313379197#0 313379197#1 313379181 674500573#0 674486781#0 674486781#1 674486781#2 313379185 313379187#0 313379187#1 570478919#18 570478919#19 450369488#0 450369488#1 450369488#2 313379191#2 313379191#3 -309055986#1 -309055986#0 -313395785#0 -313395788#2 -313395788#1 -313395788#0 -116315111#0 116315123#0 116315123#1 116315123#2 248565670#2 248565670#3 549932652 68506263#0 68506263#1 68506263#2 68506263#3 68506263#4 68506263#5 68506263#6 226319968#0 226319968#1 544248639#0 544248639#1 226319975#0 226319975#1 226319975#2 237645205#0 237645205#1 237645205#2 284450142#2 284450142#3 284450142#4 226319968#0 226319968#1 544248639#0 544248639#1 226319971#0 226319971#1 544248638#0 544248638#1 544248638#2 544248638#3 544248638#4 544248638#5 544248638#6 140001510#0 140001510#1 140001510#2 140001510#3 140001510#4 140001510#5 140001510#6 140001510#7 140001510#8 140001510#9 294798017#3 294798017#4 294798017#5 294798017#7 251684607#0 251684607#1 251684607#3 251684607#5 251684607#6 544614094#0 544614094#2 226319972#0 226319972#1 226319972#2 226319972#3 226319972#4 226319972#5 4745497#3 4745497#4 544248638#4 544248638#5 544248638#6 140001510#0 140001510#1 140001510#2 140001510#3 140001510#4 140001510#5 140001510#6 140001510#7 140001510#8 140001510#9 140001510#10 140001510#11 544301152#0 544301152#1 544301152#2 251684604#0 251684604#1 251684604#2 546578349#4 546578349#5 546578349#6 294798017#0 294798017#1 294798017#2 140001510#10 140001510#11 544301152#0 544301152#1 544301152#2 251684604#0 251684604#1 251684604#2 251684604#3 251684604#4 251684604#5 68506255#0 68506255#1 68506255#2 68506255#3 68506255#4 68506255#5 68506255#6 237566138#0 237566138#1 237566138#2 237566138#4 294798014#0 294798014#1 294798014#2 294798014#3 294798014#5 68506258#0 68506258#1 68506258#2 68506258#3 68506258#4 620654185#0 620654185#1 620654185#2 620654185#3 620654337#4 620654337#5 159500275#0 159500275#1 272639450#5 272639450#6 272639450#7 620654185#0 620654185#1 620654185#2 620654185#3 620654185#4 620654185#5 620654185#6 450369486#0 450369486#1 450369486#2 450369486#3 450369486#4 450369486#5 450369486#6 450369486#7 450369486#8 450369486#9"/>
   <flow id="2" from="4745526#3" to="544248638#2" begin="0" end="1" number="1" type="passenger" via="4745526#3 549932652 248565671#0 248565671#1 552386718 549932650 552149490#0 552149490#1 250683120#0 250683120#1 116315126#0 116315126#1 553364107#0 116315088#0 116315088#1 116315088#2 116315088#3 116315088#4 116315088#5 116315088#6 237691677#0 237691677#1 237691677#2 237691677#3 237691677#4 237691677#5 272639448#0 272639448#1 272639448#2 313379178#2 313379182#0 313379182#1 450138779 313379192#0 313379192#1 313379192#2 450613277#12 450613277#13 450613277#14 450613277#15 450613277#16 313379195#0 313379195#1 313379195#2 313379195#3 313379195#4 446419827#2 300071293#2 300071293#3 674433001#0 674433001#1 450137743#1 450137743#2 450137743#3 100318223#0 100318223#2 100318223#3 313379188 313379191#0 313379191#1 313379191#2 313379191#3 -309055986#1 -309055986#0 -313395785#0 -313395788#2 -313395788#1 -313395788#0 -116315111#0 116315123#0 116315123#1 116315123#2 248565670#2 248565670#3 549932652 248565671#0 248565671#1 552386718 116315098 314679882#0 314679882#1 314679876#0 314679876#1 116315045#0 116315045#1 449991616#4 449991616#5 449991616#6 237790228#6 237790228#7 248565673#0 248565673#1 237521092#13 237521092#14 450369487#0 450369487#1 450369487#2 450369487#3 554934617#0 554934617#1 554934617#2 450369486#0 450369486#1 450369486#2 450369486#3 450369486#4 450369486#5 450369486#6 450369486#7 226319974#3 226319974#4 226319974#5 226319974#6 309055989#0 309055989#1 309055989#2 309055989#3 309055989#4 309055989#5 309055989#6 226319964#0 226319964#1 226319964#2 226319964#3 68506235#0 68506235#1 68506235#2 68506235#3 68506235#5 68506258#0 68506258#1 68506258#2 68506258#3 68506258#4 620654185#0 620654185#1 620654185#2 620654185#3 620654185#4 620654185#5 620654185#6 4745526#0 4745526#1 4745526#2 4745526#3 549932652 68506263#0 68506263#1 68506263#2 68506263#3 450613274 293858819#0 293858820#0 293858820#1 293858820#2 293858820#3 293858820#4 293858820#5 307933391#0 307933391#1 307933391#2 237910181#5 544248640#0 544248640#1 309896346#5 309896346#6 309896346#7 309896346#8 309896346#9 309896346#10 309896346#13 449991616#0 449991616#1 449991616#2 449991616#3 449991616#4 449991616#5 449991616#6 237790228#6 237790228#7 248565673#0 248565673#1 237521092#13 237521092#14 450369487#0 450369487#1 450369487#2 450369487#3 554934617#0 554934617#1 554934617#2 450369486#0 450369486#1 450369486#2 450369486#3 450369486#4 450369486#5 450369486#6 450369486#7 226319974#3 226319974#4 226319974#5 226319974#6 309055989#0 309055989#1 309055989#2 309055989#3 309055989#4 309055989#5 309055989#6 226319963#0 226319963#1 226319963#2 226319963#3 226319963#4 546578348#0 546578348#1 546578348#2 546578350#0 546578350#1 546578350#2 546578350#3 546578350#4 546578350#5 546578350#6 546578350#7 272639450#22 272639450#23 272639450#24 272639450#25 272639450#26 272639450#27 272639450#28 272639450#29 272639450#30 272639450#31 208568872#13 208568872#14 208568872#15 54867231#2 54867231#3 4750293#3 237923123#2 237923123#3 237923123#4 237923123#6 237923123#7 237923123#9 226319976#0 226319976#2 226319976#3 226319976#4 226319976#5 226319976#6 226319976#7 226319976#8 226319976#9 226319976#10 226319964#0 226319964#1 226319964#2 226319964#3 68506235#0 68506235#1 68506235#2 68506235#3 68506235#5 68506260#0 68506260#1 68506260#2 68506260#3 546138912#0 546138912#1 546138912#2 546138912#3 313379180 313379189 313379186 450138779 313379192#0 313379192#1 313379192#2 313379192#3 313379192#4 313379192#5 313379192#6 313379192#7 450613275#0 450613275#1 450613275#2 570478919#10 570478919#11 570478919#12 570478919#13 570478919#14 450613277#9 450613277#10 450613277#11 450613277#12 450613277#13 450613277#14 450613277#15 450613277#16 313379194#0 313379194#1 313379194#2 313379197#0 313379197#1 100318223#0 100318223#2 100318223#3 313379188 313379191#0 313379191#1 313379191#2 313379191#3 -309055986#1 -309055986#0 -313395785#0 -313395788#2 -313395788#1 -313395788#0 -116315111#0 116315123#0 116315123#1 116315123#2 248565670#2 248565670#3 549932652 248565671#0 248565671#1 116315074#0 116315074#1 314679879#0 309896346#13 449991616#0 449991616#1 449991616#2 449991616#3 449991616#4 449991616#5 449991616#6 237790228#6 237790228#7 248565673#0 248565673#1 237521092#13 237521092#14 450369487#0 450369487#1 450369487#2 450369487#3 554934617#0 554934617#1 554934617#2 450369486#0 450369486#1 450369486#2 450369486#3 450369486#4 450369486#5 450369486#6 450369486#7 450369486#8 450369486#9 450369486#10 450369486#11 544248638#2"/>
   <flow id="3" from="544248639#0" to="309896346#9" begin="0" end="1" number="1" type="passenger" via="544248639#0 544248639#1 226319975#0 226319975#1 226319975#2 237645205#0 237645205#1 237645205#2 284450142#2 284450142#3 284450142#4 226319974#0 226319974#1 226319974#2 226319974#3 226319974#4 226319974#5 226319974#6 309055989#0 309055989#1 309055989#2 309055989#3 309055989#4 309055989#5 309055989#6 226319963#0 226319963#1 226319963#2 226319963#3 226319963#4 518532065#0 518532065#1 518532065#2 68506255#0 68506255#1 68506255#2 68506255#3 68506255#4 68506255#5 68506255#6 526132001#0 526132001#1 526132001#2 526132001#3 526132002#0 526132002#1 526132002#2 550092214#0 550092214#1 237566140#0 237566140#1 237566140#2 237566140#3 237566140#4 237566140#5 237566140#6 237566140#7 550090167#0 550090167#1 550090167#2 550090167#3 550090167#4 546578351 31029330#0 31029330#1 31029330#2 237566139#0 237566139#1 237566139#2 446416743#0 446416743#1 446416743#2 237566141#0 237566141#1 544614095#0 544614095#2 251684607#0 251684607#1 251684607#3 251684607#5 251684607#6 226319976#0 226319976#2 226319976#3 140001510#5 140001510#6 140001510#7 140001510#8 140001510#9 140001510#10 140001510#11 544301152#0 544301152#1 544301152#2 251684604#0 251684604#1 251684604#2 251684604#3 251684604#4 251684604#5 68506255#0 68506255#1 68506255#2 68506255#3 68506255#4 68506255#5 68506255#6 237566138#0 237566138#1 237566138#2 237566138#4 294798014#0 294798014#1 294798014#2 294798014#3 294798014#5 68506258#0 68506258#1 68506258#2 68506258#3 68506258#4 620654185#0 620654185#1 620654185#2 620654185#3 620654185#4 620654185#5 620654185#6 4745526#0 4745526#1 4745526#2 4745526#3 549932652 248565671#0 248565671#1 552386718 549932650 552149490#0 552149490#1 250683120#0 250683120#1 116315126#0 116315126#1 553364107#0 553364107#1 248565670#0 248565670#1 248565670#2 248565670#3 549932652 68506263#0 68506263#1 68506263#2 68506263#3 68506263#4 68506263#5 68506263#6 226319968#0 226319968#1 544248639#0 544248639#1 226319975#0 226319975#1 226319975#2 237645205#0 237645205#1 237645205#2 284450142#2 284450142#3 284450142#4 226319974#0 226319974#1 226319974#2 226319974#3 226319974#4 226319974#5 226319974#6 309055988#0 309055988#1 309055988#2 620654337#0 620654337#1 620654337#2 620654337#3 620654337#4 620654337#5 620654338#0 620654338#1 450369485#0 450369485#1 450369484#0 450369484#1 237691677#2 237691677#3 237691677#4 237691677#5 272639448#0 272639448#1 272639448#2 313379178#2 313379182#0 313379182#1 313379184#0 313379184#1 313379184#2 313379184#3 674507837 674507836#0 674507836#1 450138778#0 450138778#1 44029287#0 44029287#1 450137743#1 450137743#2 450137743#3 100318223#0 100318223#2 100318223#3 313379188 313379191#0 313379191#1 450369488#3 450369488#4 272639450#0 272639450#1 272639450#2 272639450#3 272639450#4 272639450#5 272639450#6 272639450#7 620654185#0 620654185#1 620654185#2 620654185#3 620654185#4 620654185#5 620654185#6 450369486#0 450369486#1 450369486#2 450369486#3 450369486#4 450369486#5 450369486#6 450369486#7 450369486#8 450369486#9 450369486#10 546578350#13 546578350#14 546578350#15 140007716#0 140007716#1 140007716#2 237645205#0 237645205#1 237645205#2 284450136#0 284450136#1 284450136#2 284450136#3 284450136#4 284450136#5 284450136#6 314679880#0 314679880#1 314679881 552149490#0 552149490#1 250683120#0 250683120#1 116315126#0 116315126#1 553364107#0 116315088#0 116315088#1 116315088#2 116315088#3 450369487#0 450369487#1 450369487#2 450369487#3 313395787#0 313395787#1 313395787#2 313395787#3 248565670#3 549932652 248565671#0 248565671#1 552386718 549932650 552149490#0 552149490#1 250683120#0 250683120#1 116315126#0 116315126#1 553364107#0 116315088#0 116315088#1 116315088#2 116315088#3 116315088#4 116315088#5 116315088#6 237691685#0 237691685#1 450369490#0 450369490#1 313395786#0 313395786#1 313395786#2 313395786#3 313395786#4 313395786#5 313395786#6 313395786#7 732998299 732998300#0 732998300#1 732998300#2 732998300#3 732998300#4 531724278#0 531724278#1 531724278#2 526132002#0 526132002#1 526132002#2 237566142#0 237566142#1 237566142#2 237566142#3 237566142#4 237566142#6 237566142#7 454019112#0 454019112#1 454019112#2 454019112#3 454019112#4 454019112#5 454019112#6 454019112#7 454019112#8 269871711#0 269871711#1 269871711#2 269871711#3 263405142#15 263405142#16 263405142#17 263405142#18 651543581#0 651543581#1 651543581#2 550092215#0 550092215#1 550092215#2 550092215#3 550092215#4 237566138#0 237566138#1 237566138#2 237566138#4 294798014#0 294798014#1 294798014#2 294798014#3 294798014#5 68506258#0 68506258#1 68506258#2 68506258#3 68506258#4 620654185#0 620654185#1 620654185#2 620654185#3 620654185#4 620654185#5 620654185#6 4745526#0 4745526#1 4745526#2 4745526#3 549932652 68506263#0 68506263#1 68506263#2 68506263#3 68506263#4 68506263#5 68506263#6 226319968#0 226319968#1 544248639#0 544248639#1 226319975#0 226319975#1 226319975#2 284450145#1 284450145#2 284450145#3 309896346#0 309896346#1 309896346#2 309896346#3 309896346#4 309896346#5 309896346#6 309896346#7 309896346#8 309896346#9"/>
   <flow id="4" from="363025532#2" to="100318223#2" begin="0" end="1" number="1" type="passenger" via="363025532#2 363025532#3 77477553#1 4750293#2 4750293#3 237923123#2 237923123#3 237923123#4 208568872#17 208568872#18 208568872#19 208568872#20 237519395#0 237519395#1 237519395#2 4746984#4 4746984#5 4746984#6 237566141#0 237566141#1 544614095#0 544614095#2 251684607#0 251684607#1 251684607#3 251684607#5 251684607#6 544614094#0 544614094#2 226319972#0 226319972#1 226319972#2 226319972#3 226319972#4 226319972#5 4745497#3 4745497#4 4745497#5 4745497#6 4745497#7 4745497#8 309055989#0 309055989#1 309055989#2 309055989#3 309055989#4 309055989#5 309055989#6 226319963#0 226319963#1 226319963#2 226319963#3 226319963#4 518532065#0 518532065#1 518532065#2 68506255#0 68506255#1 68506255#2 68506255#3 68506255#4 68506255#5 68506255#6 526132001#0 526132001#1 526132001#2 526132001#3 526132002#0 526132002#1 526132002#2 237566142#0 237566142#1 237566142#2 237566142#3 237566142#4 237566142#6 237566142#7 454019112#0 454019112#1 454019112#2 454019112#3 454019112#4 454019112#5 77912997 237912795#12 237912795#13 237912796#0 237912796#1 237912796#2 237912796#3 237912796#4 237912796#5 237912796#7 237912796#8 651543581#0 651543581#1 651543581#2 550092215#0 550092215#1 550092215#2 550092215#3 550092215#4 237566138#0 237566138#1 237566138#2 237566138#4 294798014#0 294798014#1 294798014#2 294798014#3 294798014#5 68506258#0 68506258#1 68506258#2 68506258#3 68506258#4 620654185#0 620654185#1 620654185#2 620654185#3 620654185#4 620654185#5 620654185#6 4745526#0 4745526#1 4745526#2 4745526#3 549932652 248565671#0 248565671#1 552386718 549932650 552149490#0 552149490#1 250683120#0 250683120#1 116315126#0 116315126#1 553364107#0 116315088#0 116315088#1 116315088#2 116315088#3 116315088#4 116315088#5 116315088#6 237691685#0 237691685#1 450369490#0 450369490#1 313395786#0 313395786#1 313395786#2 313395786#3 272639450#3 272639450#4 272639450#5 272639450#6 272639450#7 620654185#0 620654185#1 620654185#2 620654185#3 620654185#4 620654185#5 620654185#6 450369486#0 450369486#1 450369486#2 450369486#3 450369486#4 450369486#5 450369486#6 450369486#7 450369486#8 450369486#9 450369486#10 546578350#13 546578350#14 546578350#15 140007716#0 140007716#1 140007716#2 237645205#0 237645205#1 237645205#2 284450142#2 284450142#3 284450142#4 226319974#0 226319974#1 226319974#2 226319974#3 226319974#4 226319974#5 226319974#6 309055989#0 309055989#1 309055989#2 309055989#3 309055989#4 309055989#5 309055989#6 226319963#0 226319963#1 226319963#2 226319963#3 226319963#4 518532065#0 518532065#1 518532065#2 550090166#0 550090166#1 68506248#0 68506248#1 68506248#2 68506248#3 68506248#4 68506248#5 68506248#6 518534109#0 518534109#1 518534109#2 237912795#6 237912795#7 237912795#8 643343575#0 643343575#1 643343575#2 643343575#3 454019112#9 454019112#10 454019112#11 454019112#12 518534108#0 518534108#1 518534108#2 4753802#7 4753802#8 4753802#9 4753802#10 4753802#11 4753802#12 4753802#13 4753802#14 546578351 31029330#0 31029330#1 31029330#2 237566139#0 237566139#1 237566139#2 446416743#0 446416743#1 446416743#2 237566141#0 237566141#1 544614095#0 544614095#2 251684607#0 251684607#1 251684607#3 251684607#5 251684607#6 544614094#0 544614094#2 226319972#0 226319972#1 272639450#29 272639450#30 272639450#31 208568872#13 208568872#14 208568872#15 208568872#16 237923123#6 237923123#7 237923123#9 226319976#0 226319976#2 226319976#3 226319976#4 226319976#5 226319976#6 226319976#7 226319976#8 226319976#9 226319976#10 226319963#0 226319963#1 226319963#2 226319963#3 226319963#4 518532065#0 518532065#1 518532065#2 550090166#0 550090166#1 68506248#0 68506248#1 68506248#2 263405142#12 263405142#13 263405142#14 263405142#15 263405142#16 263405142#17 263405142#18 651543581#0 651543581#1 651543581#2 550092215#0 550092215#1 550092215#2 550092215#3 550092215#4 526132001#0 526132001#1 526132001#2 526132001#3 237566136#0 237566136#1 237566136#2 237566136#3 238179151#0 238179151#1 238179151#2 238179151#3 238179151#4 238179151#5 238179151#6 238179151#7 238179151#9 238179151#10 313379179 313379191#0 313379191#1 313379191#2 313379191#3 -309055986#1 -309055986#0 450369484#0 450369484#1 571448018#0 571448018#1 571448018#2 450137746#0 450137746#1 450137746#2 237521092#10 237521092#11 237521092#12 248565673#3 248565673#4 237691685#0 237691685#1 313395785#0 450369484#0 450369484#1 237691677#2 237691677#3 237691677#4 237691677#5 272639448#0 272639448#1 272639448#2 313379178#2 313379182#0 313379182#1 313379184#0 313379184#1 313379184#2 313379184#3 674507837 674507836#0 674507836#1 450138778#0 450138778#1 44029287#0 44029287#1 450137743#1 450137743#2 450137743#3 100318223#0 100318223#2"/>
   <flow id="5" from="13717264#1" to="544301152#2" begin="0" end="1" number="1" type="passenger" via="13717264#1 13717264#2 208568872#8 208568872#9 208568872#10 208568872#11 208568872#12 208568872#13 208568872#14 208568872#15 208568872#16 237923123#6 237923123#7 237923123#9 226319976#0 226319976#2 226319976#3 140001510#5 140001510#6 140001510#7 140001510#8 140001510#9 140001510#10 140001510#11 544301152#0 544301152#1 544301152#2 251684604#0 251684604#1 251684604#2 251684604#3 251684604#4 251684604#5 68506255#0 68506255#1 68506255#2 68506255#3 68506255#4 68506255#5 68506255#6 526132001#0 526132001#1 526132001#2 526132001#3 237566136#0 237566136#1 237566136#2 237566136#3 238179151#0 238179151#1 238179151#2 238179151#3 238179151#4 490731922#0 490731922#1 490731922#2 490731922#3 531724278#0 531724278#1 531724278#2 237566136#0 237566136#1 237566136#2 237566136#3 238179151#0 238179151#1 238179151#2 238179151#3 238179151#4 238179151#5 238179151#6 238179151#7 238179151#9 238179151#10 313379179 313379191#0 313379191#1 450369488#3 450369488#4 100318222#3 100318222#4 100318222#5 100318222#6 313395784#0 313395784#1 554934617#0 554934617#1 554934617#2 450369486#0 450369486#1 450369486#2 450369486#3 450369486#4 450369486#5 450369486#6 450369486#7 226319974#3 226319974#4 226319974#5 226319974#6 309055988#0 309055988#1 309055988#2 620654337#0 620654337#1 620654337#2 620654337#3 620654185#4 620654185#5 620654185#6 4745526#0 4745526#1 4745526#2 4745526#3 549932652 248565671#0 248565671#1 552386718 549932650 552149490#0 552149490#1 250683120#0 250683120#1 116315126#0 116315126#1 553364107#0 553364107#1 248565670#0 248565670#1 248565670#2 248565670#3 549932652 248565671#0 248565671#1 552386718 549932650 552149490#0 552149490#1 250683120#0 250683120#1 116315126#0 116315126#1 553364107#0 116315088#0 116315088#1 116315088#2 116315088#3 116315088#4 116315088#5 116315088#6 237691685#0 237691685#1 450369490#0 450369490#1 313395786#0 313395786#1 313395786#2 313395786#3 313395786#4 313395786#5 313395786#6 313395786#7 546138912#0 546138912#1 546138912#2 546138912#3 313379180 313379189 313379186 450138779 313379192#0 313379192#1 313379192#2 450613277#12 450613277#13 450613277#14 450613277#15 450613277#16 313379194#0 313379194#1 313379194#2 313379197#0 313379197#1 100318223#0 100318223#2 100318223#3 313379188 313379191#0 313379191#1 450369488#3 450369488#4 272639450#0 272639450#1 272639450#2 272639450#3 272639450#4 272639450#5 272639450#6 272639450#7 272639450#8 272639450#9 272639450#10 272639450#11 272639450#12 272639450#13 272639450#14 272639450#15 272639450#16 309055989#4 309055989#5 309055989#6 226319963#0 226319963#1 226319963#2 226319963#3 226319963#4 546578348#0 546578348#1 546578348#2 294798017#0 294798017#1 294798017#2 294798017#3 294798017#4 294798017#5 294798017#7 251684607#0 251684607#1 251684607#3 251684607#5 251684607#6 544614094#0 544614094#2 226319972#0 226319972#1 272639450#29 272639450#30 272639450#31 208568872#13 208568872#14 208568872#15 54867231#2 13717183#1 13717183#2 13717183#3 13717339#3 4750293#1 4750293#2 4750293#3 237923123#2 237923123#3 237923123#4 237923123#6 237923123#7 237923123#9 226319976#0 226319976#2 226319976#3 226319976#4 226319976#5 226319976#6 226319976#7 226319976#8 226319976#9 226319976#10 226319964#0 226319964#1 226319964#2 226319964#3 294798016#0 294798016#1 294798016#2 294798016#3 294798016#4 272639450#13 272639450#14 272639450#15 272639450#16 272639450#17 272639450#18 272639450#19 272639450#20 272639450#21 272639450#22 272639450#23 272639450#24 272639450#25 140001510#2 140001510#3 140001510#4 226319976#4 226319976#5 226319976#6 226319976#7 546578350#5 546578350#6 546578350#7 272639450#22 272639450#23 272639450#24 272639450#25 140001510#2 140001510#3 140001510#4 140001510#5 140001510#6 140001510#7 140001510#8 140001510#9 140001510#10 140001510#11 544301152#0 544301152#1 544301152#2"/>