<?xml version="1.0" encoding="UTF-8"?>

<!-- generated on mié 11 dic 2019 12:02:27 CET by Netedit Version 0.32.0
<?xml version="1.0" encoding="UTF-8"?>

<configuration xmlns:xsi="http://www.w3.org/2001/XMLSchema-instance" xsi:noNamespaceSchemaLocation="http://sumo.dlr.de/xsd/netconvertConfiguration.xsd">

    <input>
        <sumo-net-file value="/root/git/veins/examples/veins/sfamilia.net.xml"/>
    </input>

    <output>
        <output-file value="/root/git/veins/examples/veins/sfamilia.net.xml"/>
    </output>

    <processing>
        <no-turnarounds value="true"/>
        <offset.disable-normalization value="true"/>
        <lefthand value="false"/>
        <junctions.corner-detail value="5"/>
        <rectangular-lane-cut value="true"/>
        <walkingareas value="false"/>
    </processing>

</configuration>
-->

<net version="0.27" junctionCornerDetail="5" rectangularLaneCut="true" xmlns:xsi="http://www.w3.org/2001/XMLSchema-instance" xsi:noNamespaceSchemaLocation="http://sumo.dlr.de/xsd/net_file.xsd">

    <location netOffset="-429926.77,-4582832.08" convBoundary="0.00,0.00,1833.89,2121.50" origBoundary="2.149486,41.378839,2.218366,41.430217" projParameter="+proj=utm +zone=31 +ellps=WGS84 +datum=WGS84 +units=m +no_defs"/>

    <type id="highway.bridleway" priority="1" numLanes="1" speed="2.78" allow="pedestrian" oneway="1" width="2.00"/>
    <type id="highway.bus_guideway" priority="1" numLanes="1" speed="27.78" allow="bus" oneway="1"/>
    <type id="highway.cycleway" priority="1" numLanes="1" speed="8.33" allow="bicycle" oneway="0" width="1.00"/>
    <type id="highway.footway" priority="1" numLanes="1" speed="2.78" allow="pedestrian" oneway="1" width="2.00"/>
    <type id="highway.ford" priority="1" numLanes="1" speed="2.78" allow="army" oneway="0"/>
    <type id="highway.living_street" priority="2" numLanes="1" speed="2.78" disallow="tram rail_urban rail rail_electric ship" oneway="0"/>
    <type id="highway.motorway" priority="14" numLanes="2" speed="39.44" allow="private emergency authority army vip passenger hov taxi bus coach delivery truck trailer motorcycle evehicle custom1 custom2" oneway="1"/>
    <type id="highway.motorway_link" priority="9" numLanes="1" speed="22.22" allow="private emergency authority army vip passenger hov taxi bus coach delivery truck trailer motorcycle evehicle custom1 custom2" oneway="1"/>
    <type id="highway.path" priority="1" numLanes="1" speed="2.78" allow="bicycle pedestrian" oneway="1" width="2.00"/>
    <type id="highway.pedestrian" priority="1" numLanes="1" speed="2.78" allow="pedestrian" oneway="1" width="2.00"/>
    <type id="highway.primary" priority="12" numLanes="2" speed="27.78" disallow="tram rail_urban rail rail_electric ship" oneway="0"/>
    <type id="highway.primary_link" priority="7" numLanes="1" speed="22.22" disallow="tram rail_urban rail rail_electric ship" oneway="0"/>
    <type id="highway.raceway" priority="15" numLanes="2" speed="83.33" allow="vip" oneway="0"/>
    <type id="highway.residential" priority="3" numLanes="1" speed="13.89" disallow="tram rail_urban rail rail_electric ship" oneway="0"/>
    <type id="highway.secondary" priority="11" numLanes="2" speed="27.78" disallow="tram rail_urban rail rail_electric ship" oneway="0"/>
    <type id="highway.secondary_link" priority="6" numLanes="1" speed="22.22" disallow="tram rail_urban rail rail_electric ship" oneway="0"/>
    <type id="highway.service" priority="1" numLanes="1" speed="5.56" allow="delivery bicycle pedestrian" oneway="0"/>
    <type id="highway.stairs" priority="1" numLanes="1" speed="1.39" allow="pedestrian" oneway="1" width="2.00"/>
    <type id="highway.step" priority="1" numLanes="1" speed="1.39" allow="pedestrian" oneway="1" width="2.00"/>
    <type id="highway.steps" priority="1" numLanes="1" speed="1.39" allow="pedestrian" oneway="1" width="2.00"/>
    <type id="highway.tertiary" priority="10" numLanes="1" speed="22.22" disallow="tram rail_urban rail rail_electric ship" oneway="0"/>
    <type id="highway.tertiary_link" priority="5" numLanes="1" speed="22.22" disallow="tram rail_urban rail rail_electric ship" oneway="0"/>
    <type id="highway.track" priority="1" numLanes="1" speed="5.56" disallow="tram rail_urban rail rail_electric ship" oneway="0"/>
    <type id="highway.trunk" priority="13" numLanes="2" speed="27.78" disallow="tram rail_urban rail rail_electric bicycle pedestrian ship" oneway="0"/>
    <type id="highway.trunk_link" priority="8" numLanes="1" speed="22.22" disallow="tram rail_urban rail rail_electric bicycle pedestrian ship" oneway="0"/>
    <type id="highway.unclassified" priority="4" numLanes="1" speed="13.89" disallow="tram rail_urban rail rail_electric ship" oneway="0"/>
    <type id="highway.unsurfaced" priority="1" numLanes="1" speed="8.33" disallow="tram rail_urban rail rail_electric ship" oneway="0"/>
    <type id="railway.light_rail" priority="19" numLanes="1" speed="27.78" allow="rail_urban" oneway="1"/>
    <type id="railway.preserved" priority="16" numLanes="1" speed="27.78" allow="rail" oneway="1"/>
    <type id="railway.rail" priority="20" numLanes="1" speed="83.33" allow="rail rail_electric" oneway="1"/>
    <type id="railway.subway" priority="18" numLanes="1" speed="27.78" allow="rail_urban" oneway="1"/>
    <type id="railway.tram" priority="17" numLanes="1" speed="13.89" allow="tram" oneway="1"/>

    <edge id=":1124790711_0" function="internal">
        <lane id=":1124790711_0_0" index="0" disallow="tram rail_urban rail rail_electric ship" speed="13.89" length="14.50" shape="397.62,500.49 393.73,497.21 390.35,495.47 387.47,495.27 385.10,496.62"/>
    </edge>
    <edge id=":1124790711_1" function="internal">
        <lane id=":1124790711_1_0" index="0" disallow="tram rail_urban rail rail_electric ship" speed="13.89" length="15.31" shape="397.62,500.49 395.11,498.11 392.52,496.10 389.26,494.33 384.70,492.64"/>
    </edge>
    <edge id=":1124790711_2" function="internal">
        <lane id=":1124790711_2_0" index="0" disallow="tram rail_urban rail rail_electric ship" speed="13.89" length="14.46" shape="399.57,497.21 384.70,492.64"/>
        <lane id=":1124790711_2_1" index="1" disallow="tram rail_urban rail rail_electric ship" speed="13.89" length="14.46" shape="400.54,494.06 387.76,490.15"/>
    </edge>
    <edge id=":1124790711_4" function="internal">
        <lane id=":1124790711_4_0" index="0" disallow="tram rail_urban rail rail_electric ship" speed="18.05" length="11.41" shape="392.71,488.12 390.71,490.60 389.07,492.51 387.35,494.35 385.10,496.62"/>
    </edge>
    <edge id=":1124790711_5" function="internal">
        <lane id=":1124790711_5_0" index="0" disallow="tram rail_urban rail rail_electric ship" speed="18.05" length="5.71" shape="392.71,488.12 391.55,489.32 390.34,490.06 389.08,490.33 387.76,490.15"/>
    </edge>
    <edge id=":1126848504_0" function="internal">
        <lane id=":1126848504_0_0" index="0" disallow="tram rail_urban rail rail_electric ship" speed="13.89" length="1.02" shape="717.54,596.41 717.11,596.27 716.82,596.16 716.54,596.01 716.17,595.75"/>
        <lane id=":1126848504_0_1" index="1" disallow="tram rail_urban rail rail_electric ship" speed="13.89" length="1.02" shape="718.48,593.24 718.34,593.20 718.24,593.16 718.15,593.11 718.03,593.03"/>
    </edge>
    <edge id=":1126848522_0" function="internal">
        <lane id=":1126848522_0_0" index="0" disallow="tram rail_urban rail rail_electric ship" speed="18.05" length="8.93" shape="556.70,503.99 559.32,504.58 561.59,504.58 563.51,503.99 565.08,502.82"/>
    </edge>
    <edge id=":1126848522_1" function="internal">
        <lane id=":1126848522_1_0" index="0" disallow="tram rail_urban rail rail_electric ship" speed="13.89" length="9.92" shape="556.70,503.99 566.16,506.99"/>
        <lane id=":1126848522_1_1" index="1" disallow="tram rail_urban rail rail_electric ship" speed="13.89" length="9.92" shape="555.70,507.13 565.16,510.13"/>
    </edge>
    <edge id=":1126848522_3" function="internal">
        <lane id=":1126848522_3_0" index="0" disallow="tram rail_urban rail rail_electric ship" speed="22.22" length="11.94" shape="556.69,511.31 565.08,502.82"/>
    </edge>
    <edge id=":1126848522_4" function="internal">
        <lane id=":1126848522_4_0" index="0" disallow="tram rail_urban rail rail_electric ship" speed="18.05" length="8.99" shape="556.69,511.31 558.34,510.14 560.30,509.56 562.58,509.55 565.16,510.13"/>
    </edge>
    <edge id=":1126848552_0" function="internal">
        <lane id=":1126848552_0_0" index="0" disallow="tram rail_urban rail rail_electric ship" speed="13.89" length="10.19" shape="637.95,586.55 639.87,584.29 640.86,582.47 641.60,580.47 642.76,577.68"/>
    </edge>
    <edge id=":1126848552_1" function="internal">
        <lane id=":1126848552_1_0" index="0" disallow="tram rail_urban rail rail_electric ship" speed="13.89" length="10.17" shape="637.95,586.55 640.09,584.46 641.69,583.12 643.36,581.86 645.74,580.03"/>
    </edge>
    <edge id=":126545684_0" function="internal">
        <lane id=":126545684_0_0" index="0" disallow="tram rail_urban rail rail_electric ship" speed="13.89" length="5.11" shape="414.39,1419.85 413.56,1420.99 413.32,1422.10 413.69,1423.18 414.65,1424.22"/>
    </edge>
    <edge id=":126545684_1" function="internal">
        <lane id=":126545684_1_0" index="0" disallow="tram rail_urban rail rail_electric ship" speed="13.89" length="9.53" shape="407.26,1418.22 414.65,1424.22"/>
    </edge>
    <edge id=":126655918_0" function="internal">
        <lane id=":126655918_0_0" index="0" disallow="tram rail_urban rail rail_electric ship" speed="13.89" length="5.07" shape="415.59,1527.02 414.38,1526.30 413.25,1526.13 412.18,1526.52 411.18,1527.47"/>
    </edge>
    <edge id=":126655918_1" function="internal">
        <lane id=":126655918_1_0" index="0" disallow="tram rail_urban rail rail_electric ship" speed="13.89" length="6.27" shape="415.59,1527.02 410.70,1523.09"/>
    </edge>
    <edge id=":126655918_2" function="internal">
        <lane id=":126655918_2_0" index="0" disallow="tram rail_urban rail rail_electric ship" speed="13.89" length="6.30" shape="415.23,1522.65 411.18,1527.47"/>
    </edge>
    <edge id=":126655918_3" function="internal">
        <lane id=":126655918_3_0" index="0" disallow="tram rail_urban rail rail_electric ship" speed="13.89" length="1.64" shape="415.23,1522.65 414.15,1523.56 413.94,1523.64"/>
    </edge>
    <edge id=":126655918_4" function="internal">
        <lane id=":126655918_4_0" index="0" speed="13.89" length="3.49" shape="413.94,1523.64 413.04,1523.94 411.89,1523.79 410.70,1523.09"/>
    </edge>
    <edge id=":126656743_0" function="internal">
        <lane id=":126656743_0_0" index="0" disallow="tram rail_urban rail rail_electric ship" speed="13.89" length="6.26" shape="247.67,1388.98 242.79,1385.05"/>
    </edge>
    <edge id=":126656743_1" function="internal">
        <lane id=":126656743_1_0" index="0" disallow="tram rail_urban rail rail_electric ship" speed="11.11" length="5.08" shape="247.67,1388.98 246.72,1387.96 246.32,1386.88 246.46,1385.74 247.15,1384.54"/>
    </edge>
    <edge id=":126656743_2" function="internal">
        <lane id=":126656743_2_0" index="0" disallow="tram rail_urban rail rail_electric ship" speed="11.11" length="5.07" shape="243.31,1389.49 244.00,1388.28 244.14,1387.13 243.74,1386.06 242.79,1385.05"/>
    </edge>
    <edge id=":126656743_3" function="internal">
        <lane id=":126656743_3_0" index="0" disallow="tram rail_urban rail rail_electric ship" speed="8.33" length="6.26" shape="243.31,1389.49 247.15,1384.54"/>
    </edge>
    <edge id=":126657993_0" function="internal">
        <lane id=":126657993_0_0" index="0" disallow="tram rail_urban rail rail_electric ship" speed="13.89" length="5.07" shape="325.80,1452.92 324.61,1452.17 323.49,1452.00 322.43,1452.41 321.44,1453.40"/>
    </edge>
    <edge id=":126657993_1" function="internal">
        <lane id=":126657993_1_0" index="0" disallow="tram rail_urban rail rail_electric ship" speed="13.89" length="6.32" shape="325.80,1452.92 320.94,1448.87"/>
    </edge>
    <edge id=":126657993_2" function="internal">
        <lane id=":126657993_2_0" index="0" disallow="tram rail_urban rail rail_electric ship" speed="13.89" length="6.32" shape="325.30,1448.40 321.44,1453.40"/>
    </edge>
    <edge id=":126657993_3" function="internal">
        <lane id=":126657993_3_0" index="0" disallow="tram rail_urban rail rail_electric ship" speed="13.89" length="1.59" shape="325.30,1448.40 324.30,1449.35 324.10,1449.42"/>
    </edge>
    <edge id=":126657993_4" function="internal">
        <lane id=":126657993_4_0" index="0" speed="13.89" length="3.43" shape="324.10,1449.42 323.24,1449.74 322.12,1449.58 320.94,1448.87"/>
    </edge>
    <edge id=":126657995_0" function="internal">
        <lane id=":126657995_0_0" index="0" disallow="tram rail_urban rail rail_electric ship" speed="13.89" length="5.17" shape="279.91,1508.50 279.23,1509.73 279.09,1510.90 279.50,1512.00 280.45,1513.04"/>
    </edge>
    <edge id=":126657995_1" function="internal">
        <lane id=":126657995_1_0" index="0" disallow="tram rail_urban rail rail_electric ship" speed="13.89" length="6.34" shape="279.91,1508.50 276.09,1513.56"/>
    </edge>
    <edge id=":126657995_2" function="internal">
        <lane id=":126657995_2_0" index="0" disallow="tram rail_urban rail rail_electric ship" speed="13.89" length="6.34" shape="275.55,1509.02 280.45,1513.04"/>
    </edge>
    <edge id=":126657995_3" function="internal">
        <lane id=":126657995_3_0" index="0" disallow="tram rail_urban rail rail_electric ship" speed="13.89" length="1.62" shape="275.55,1509.02 276.50,1510.06 276.58,1510.26"/>
    </edge>
    <edge id=":126657995_4" function="internal">
        <lane id=":126657995_4_0" index="0" speed="13.89" length="3.55" shape="276.58,1510.26 276.91,1511.16 276.78,1512.33 276.09,1513.56"/>
    </edge>
    <edge id=":126797324_0" function="internal">
        <lane id=":126797324_0_0" index="0" disallow="tram rail_urban rail rail_electric ship" speed="13.89" length="17.75" shape="870.52,394.44 868.53,393.71 865.47,394.90 861.36,398.00 856.19,403.01"/>
    </edge>
    <edge id=":126797324_1" function="internal">
        <lane id=":126797324_1_0" index="0" disallow="tram rail_urban rail rail_electric ship" speed="13.89" length="23.09" shape="873.01,392.27 869.82,390.51 865.56,391.34 860.22,394.75 853.80,400.73"/>
    </edge>
    <edge id=":126797329_0" function="internal">
        <lane id=":126797329_0_0" index="0" disallow="tram rail_urban rail rail_electric ship" speed="13.89" length="5.04" shape="593.92,692.20 592.81,691.39 591.71,691.14 590.60,691.43 589.51,692.29"/>
    </edge>
    <edge id=":126797329_1" function="internal">
        <lane id=":126797329_1_0" index="0" disallow="tram rail_urban rail rail_electric ship" speed="18.05" length="6.25" shape="593.92,692.20 589.38,687.90"/>
    </edge>
    <edge id=":126797329_2" function="internal">
        <lane id=":126797329_2_0" index="0" disallow="tram rail_urban rail rail_electric ship" speed="13.89" length="6.24" shape="593.86,687.81 589.51,692.29"/>
    </edge>
    <edge id=":126797329_3" function="internal">
        <lane id=":126797329_3_0" index="0" disallow="tram rail_urban rail rail_electric ship" speed="18.05" length="5.08" shape="593.86,687.81 592.77,688.65 591.66,688.94 590.53,688.69 589.38,687.90"/>
    </edge>
    <edge id=":126797986_0" function="internal">
        <lane id=":126797986_0_0" index="0" disallow="tram rail_urban rail rail_electric ship" speed="13.89" length="4.99" shape="410.10,883.40 409.00,882.59 407.90,882.32 406.80,882.60 405.71,883.42"/>
    </edge>
    <edge id=":126797986_1" function="internal">
        <lane id=":126797986_1_0" index="0" disallow="tram rail_urban rail rail_electric ship" speed="18.05" length="8.82" shape="410.10,883.40 408.32,881.99 406.39,881.09 404.28,880.69 402.01,880.79"/>
    </edge>
    <edge id=":126797986_2" function="internal">
        <lane id=":126797986_2_0" index="0" disallow="tram rail_urban rail rail_electric ship" speed="18.05" length="7.59" shape="410.10,883.40 404.65,878.11"/>
    </edge>
    <edge id=":126797986_3" function="internal">
        <lane id=":126797986_3_0" index="0" disallow="tram rail_urban rail rail_electric ship" speed="13.89" length="6.17" shape="410.05,878.97 405.71,883.42"/>
        <lane id=":126797986_3_1" index="1" disallow="tram rail_urban rail rail_electric ship" speed="13.89" length="6.17" shape="407.66,876.70 403.38,881.08"/>
    </edge>
    <edge id=":126797986_5" function="internal">
        <lane id=":126797986_5_0" index="0" disallow="tram rail_urban rail rail_electric ship" speed="18.05" length="7.23" shape="407.66,876.70 406.25,878.33 405.23,879.50 404.01,880.29 402.01,880.79"/>
    </edge>
    <edge id=":126797987_0" function="internal">
        <lane id=":126797987_0_0" index="0" disallow="tram rail_urban rail rail_electric ship" speed="20.84" length="6.32" shape="502.77,781.53 502.03,782.70 501.98,784.00 502.61,785.44 503.93,787.02"/>
    </edge>
    <edge id=":126797987_1" function="internal">
        <lane id=":126797987_1_0" index="0" disallow="tram rail_urban rail rail_electric ship" speed="13.89" length="9.62" shape="502.77,781.53 500.98,783.72 500.04,785.47 499.08,787.19 497.22,789.33"/>
    </edge>
    <edge id=":126797987_2" function="internal">
        <lane id=":126797987_2_0" index="0" disallow="tram rail_urban rail rail_electric ship" speed="25.00" length="7.79" shape="497.28,782.96 498.78,784.67 499.49,786.11 500.17,787.58 501.60,789.36"/>
    </edge>
    <edge id=":126797987_3" function="internal">
        <lane id=":126797987_3_0" index="0" disallow="tram rail_urban rail rail_electric ship" speed="18.05" length="4.92" shape="497.28,782.96 497.49,783.53 497.16,784.38 496.32,785.52 494.94,786.94"/>
    </edge>
    <edge id=":126797988_0" function="internal">
        <lane id=":126797988_0_0" index="0" disallow="tram rail_urban rail rail_electric ship" speed="20.84" length="6.09" shape="688.74,591.41 688.07,590.31 687.10,588.68 686.05,587.21 685.14,586.59"/>
    </edge>
    <edge id=":126797988_1" function="internal">
        <lane id=":126797988_1_0" index="0" disallow="tram rail_urban rail rail_electric ship" speed="20.84" length="9.14" shape="691.43,589.51 689.36,586.76 687.59,584.81 686.14,583.65 684.98,583.29"/>
    </edge>
    <edge id=":126797988_2" function="internal">
        <lane id=":126797988_2_0" index="0" disallow="tram rail_urban rail rail_electric ship" speed="13.89" length="7.31" shape="693.03,585.48 690.87,586.42 689.26,586.68 687.56,586.62 685.14,586.59"/>
        <lane id=":126797988_2_1" index="1" disallow="tram rail_urban rail rail_electric ship" speed="13.89" length="7.31" shape="691.44,582.47 689.53,582.78 688.22,583.01 686.91,583.18 684.98,583.29"/>
    </edge>
    <edge id=":126803326_0" function="internal">
        <lane id=":126803326_0_0" index="0" disallow="tram rail_urban rail rail_electric ship" speed="13.89" length="4.62" shape="670.55,579.00 669.70,578.29 669.06,577.87 668.34,577.60 667.27,577.34"/>
        <lane id=":126803326_0_1" index="1" disallow="tram rail_urban rail rail_electric ship" speed="13.89" length="4.62" shape="670.55,579.00 668.01,574.12"/>
    </edge>
    <edge id=":126803326_2" function="internal">
        <lane id=":126803326_2_0" index="0" disallow="tram rail_urban rail rail_electric ship" speed="13.89" length="3.02" shape="670.55,579.00 669.83,578.39 669.33,577.98 668.85,577.54 668.19,576.87"/>
        <lane id=":126803326_2_1" index="1" disallow="tram rail_urban rail rail_electric ship" speed="13.89" length="3.02" shape="672.70,576.50 672.05,575.95 671.60,575.58 671.16,575.19 670.56,574.58"/>
    </edge>
    <edge id=":1286855172_0" function="internal">
        <lane id=":1286855172_0_0" index="0" disallow="tram rail_urban rail rail_electric ship" speed="27.78" length="6.21" shape="1186.84,892.42 1191.33,896.74"/>
        <lane id=":1286855172_0_1" index="1" disallow="tram rail_urban rail rail_electric ship" speed="27.78" length="6.21" shape="1184.56,894.80 1189.03,899.11"/>
    </edge>
    <edge id=":1286855172_2" function="internal">
        <lane id=":1286855172_2_0" index="0" disallow="tram rail_urban rail rail_electric ship" speed="20.84" length="5.01" shape="1184.65,899.20 1185.73,898.35 1186.82,898.05 1187.92,898.30 1189.03,899.11"/>
    </edge>
    <edge id=":1286855176_0" function="internal">
        <lane id=":1286855176_0_0" index="0" disallow="tram rail_urban rail rail_electric ship" speed="27.78" length="6.23" shape="1108.44,816.54 1112.92,820.90"/>
        <lane id=":1286855176_0_1" index="1" disallow="tram rail_urban rail rail_electric ship" speed="27.78" length="6.23" shape="1106.15,818.91 1110.60,823.25"/>
    </edge>
    <edge id=":1286855176_2" function="internal">
        <lane id=":1286855176_2_0" index="0" disallow="tram rail_urban rail rail_electric ship" speed="20.84" length="5.02" shape="1106.19,823.30 1107.30,822.47 1108.40,822.18 1109.50,822.44 1110.60,823.25"/>
    </edge>
    <edge id=":1303457329_0" function="internal">
        <lane id=":1303457329_0_0" index="0" disallow="tram rail_urban rail rail_electric ship" speed="8.34" length="5.02" shape="1295.21,924.95 1294.39,926.06 1294.11,927.17 1294.39,928.26 1295.23,929.34"/>
    </edge>
    <edge id=":1303457329_1" function="internal">
        <lane id=":1303457329_1_0" index="0" disallow="tram rail_urban rail rail_electric ship" speed="13.89" length="6.23" shape="1295.21,924.95 1290.87,929.39"/>
        <lane id=":1303457329_1_1" index="1" disallow="tram rail_urban rail rail_electric ship" speed="13.89" length="6.23" shape="1292.87,922.63 1288.50,927.09"/>
    </edge>
    <edge id=":1303457341_0" function="internal">
        <lane id=":1303457341_0_0" index="0" disallow="tram rail_urban rail rail_electric ship" speed="15.28" length="5.01" shape="1382.42,1013.67 1383.53,1014.48 1384.64,1014.74 1385.73,1014.44 1386.81,1013.59"/>
    </edge>
    <edge id=":1303457341_1" function="internal">
        <lane id=":1303457341_1_0" index="0" disallow="tram rail_urban rail rail_electric ship" speed="27.78" length="6.20" shape="1382.53,1018.07 1386.81,1013.59"/>
        <lane id=":1303457341_1_1" index="1" disallow="tram rail_urban rail rail_electric ship" speed="27.78" length="6.20" shape="1384.91,1020.35 1389.19,1015.87"/>
    </edge>
    <edge id=":1303457386_0" function="internal">
        <lane id=":1303457386_0_0" index="0" disallow="tram rail_urban rail rail_electric ship" speed="27.78" length="6.34" shape="629.12,908.30 633.67,912.81"/>
        <lane id=":1303457386_0_1" index="1" disallow="tram rail_urban rail rail_electric ship" speed="27.78" length="6.34" shape="626.85,910.70 631.31,915.11"/>
    </edge>
    <edge id=":1303457386_2" function="internal">
        <lane id=":1303457386_2_0" index="0" disallow="tram rail_urban rail rail_electric ship" speed="15.28" length="5.11" shape="626.85,910.70 627.68,911.76 627.97,912.87 627.72,914.02 626.92,915.22"/>
    </edge>
    <edge id=":1303465743_0" function="internal">
        <lane id=":1303465743_0_0" index="0" disallow="tram rail_urban rail rail_electric ship" speed="13.89" length="5.05" shape="632.13,1008.51 631.25,1007.43 630.93,1006.35 631.19,1005.24 632.03,1004.13"/>
    </edge>
    <edge id=":1303465743_1" function="internal">
        <lane id=":1303465743_1_0" index="0" disallow="tram rail_urban rail rail_electric ship" speed="13.89" length="6.21" shape="625.31,1006.22 629.68,1001.80"/>
        <lane id=":1303465743_1_1" index="1" disallow="tram rail_urban rail rail_electric ship" speed="13.89" length="6.21" shape="627.66,1008.54 632.03,1004.13"/>
    </edge>
    <edge id=":1303465744_0" function="internal">
        <lane id=":1303465744_0_0" index="0" disallow="tram rail_urban rail rail_electric ship" speed="13.89" length="6.20" shape="731.67,1095.44 727.33,1099.87"/>
        <lane id=":1303465744_0_1" index="1" disallow="tram rail_urban rail rail_electric ship" speed="13.89" length="6.20" shape="729.31,1093.13 724.97,1097.56"/>
    </edge>
    <edge id=":1303465744_2" function="internal">
        <lane id=":1303465744_2_0" index="0" disallow="tram rail_urban rail rail_electric ship" speed="13.89" length="5.05" shape="729.31,1093.13 728.23,1093.95 727.13,1094.23 726.00,1093.97 724.85,1093.18"/>
    </edge>
    <edge id=":1303465751_0" function="internal">
        <lane id=":1303465751_0_0" index="0" disallow="tram rail_urban rail rail_electric ship" speed="12.50" length="5.13" shape="231.21,840.27 231.95,839.17 232.17,838.04 231.87,836.88 231.06,835.67"/>
    </edge>
    <edge id=":1303465751_1" function="internal">
        <lane id=":1303465751_1_0" index="0" disallow="tram rail_urban rail rail_electric ship" speed="22.22" length="6.18" shape="231.21,840.27 235.45,835.77"/>
    </edge>
    <edge id=":1303465757_0" function="internal">
        <lane id=":1303465757_0_0" index="0" disallow="tram rail_urban rail rail_electric ship" speed="18.05" length="5.08" shape="244.30,821.94 245.37,822.86 246.46,823.19 247.56,822.93 248.69,822.08"/>
    </edge>
    <edge id=":1303465757_1" function="internal">
        <lane id=":1303465757_1_0" index="0" disallow="tram rail_urban rail rail_electric ship" speed="22.22" length="6.18" shape="244.36,826.50 248.69,822.08"/>
    </edge>
    <edge id=":1307271989_0" function="internal">
        <lane id=":1307271989_0_0" index="0" disallow="tram rail_urban rail rail_electric ship" speed="27.78" length="6.11" shape="1016.39,917.28 1012.04,913.04"/>
        <lane id=":1307271989_0_1" index="1" disallow="tram rail_urban rail rail_electric ship" speed="27.78" length="6.11" shape="1018.73,914.95 1014.32,910.65"/>
    </edge>
    <edge id=":1307271989_2" function="internal">
        <lane id=":1307271989_2_0" index="0" disallow="tram rail_urban rail rail_electric ship" speed="20.84" length="5.06" shape="1018.73,914.95 1017.93,913.88 1017.66,912.77 1017.92,911.62 1018.70,910.44"/>
    </edge>
    <edge id=":1311619267_0" function="internal">
        <lane id=":1311619267_0_0" index="0" disallow="tram rail_urban rail rail_electric ship" speed="13.89" length="0.46" shape="704.12,557.62 704.19,557.67 704.26,557.60 704.35,557.49 704.48,557.43"/>
    </edge>
    <edge id=":1311619267_1" function="internal">
        <lane id=":1311619267_1_0" index="0" disallow="tram rail_urban rail rail_electric ship" speed="13.89" length="3.51" shape="704.12,557.62 704.76,558.96 705.06,559.92 705.03,560.51 704.66,560.73"/>
    </edge>
    <edge id=":1311619267_2" function="internal">
        <lane id=":1311619267_2_0" index="0" disallow="tram rail_urban rail rail_electric ship" speed="13.89" length="2.60" shape="704.12,557.62 704.51,558.37 704.73,558.90 704.93,559.44 705.21,560.24"/>
        <lane id=":1311619267_2_1" index="1" disallow="tram rail_urban rail rail_electric ship" speed="13.89" length="2.60" shape="701.21,559.16 701.52,559.79 701.71,560.23 701.87,560.68 702.10,561.35"/>
    </edge>
    <edge id=":1311619324_0" function="internal">
        <lane id=":1311619324_0_0" index="0" disallow="tram rail_urban rail rail_electric ship" speed="13.89" length="5.67" shape="705.77,561.83 706.44,563.31 707.20,564.17 708.22,564.81 709.69,565.63"/>
    </edge>
    <edge id=":1311619324_1" function="internal">
        <lane id=":1311619324_1_0" index="0" disallow="tram rail_urban rail rail_electric ship" speed="13.89" length="5.52" shape="705.77,561.83 706.22,563.52 706.24,564.74 706.09,565.99 706.03,567.79"/>
        <lane id=":1311619324_1_1" index="1" disallow="tram rail_urban rail rail_electric ship" speed="13.89" length="5.52" shape="702.67,562.93 703.02,564.34 702.98,565.36 702.81,566.40 702.73,567.88"/>
    </edge>
    <edge id=":1311619326_0" function="internal">
        <lane id=":1311619326_0_0" index="0" disallow="tram rail_urban rail rail_electric ship" speed="13.89" length="25.81" shape="945.35,653.44 920.71,645.74"/>
    </edge>
    <edge id=":1311619326_1" function="internal">
        <lane id=":1311619326_1_0" index="0" disallow="tram rail_urban rail rail_electric ship" speed="20.84" length="24.37" shape="926.05,637.02 931.53,641.86 937.02,645.76 942.09,648.60 946.28,650.28"/>
    </edge>
    <edge id=":1311619326_2" function="internal">
        <lane id=":1311619326_2_0" index="0" disallow="tram rail_urban rail rail_electric ship" speed="27.78" length="25.69" shape="926.05,637.02 930.90,641.90 935.07,646.39 938.96,651.12 942.98,656.70"/>
        <lane id=":1311619326_2_1" index="1" disallow="tram rail_urban rail rail_electric ship" speed="27.78" length="25.69" shape="923.72,639.36 928.51,644.17 932.54,648.49 936.30,653.05 940.25,658.55"/>
    </edge>
    <edge id=":1311619326_4" function="internal">
        <lane id=":1311619326_4_0" index="0" disallow="tram rail_urban rail rail_electric ship" speed="13.89" length="25.71" shape="921.74,642.61 946.28,650.28"/>
    </edge>
    <edge id=":1311619337_0" function="internal">
        <lane id=":1311619337_0_0" index="0" disallow="tram rail_urban rail rail_electric ship" speed="13.89" length="1.24" shape="669.66,556.90 669.87,556.39 670.05,556.06 670.29,555.76 670.67,555.35"/>
        <lane id=":1311619337_0_1" index="1" disallow="tram rail_urban rail rail_electric ship" speed="13.89" length="1.24" shape="672.71,558.15 672.78,557.99 672.84,557.88 672.92,557.78 673.04,557.65"/>
    </edge>
    <edge id=":1311619390_0" function="internal">
        <lane id=":1311619390_0_0" index="0" disallow="tram rail_urban rail rail_electric ship" speed="13.89" length="6.23" shape="701.23,585.55 699.50,584.54 697.96,583.98 696.60,583.87 695.42,584.22"/>
    </edge>
    <edge id=":1311619390_1" function="internal">
        <lane id=":1311619390_1_0" index="0" disallow="tram rail_urban rail rail_electric ship" speed="13.89" length="9.81" shape="703.09,582.83 700.54,581.38 698.15,580.65 695.93,580.62 693.88,581.30"/>
    </edge>