<?xml version="1.0" encoding="UTF-8"?>

<configuration xmlns:xsi="http://www.w3.org/2001/XMLSchema-instance" xsi:noNamespaceSchemaLocation="http://sumo.sf.net/xsd/sumoConfiguration.xsd">

    <input>
        <net-file value="barcelona.net.xml"/>
        <route-files value="barcelona.rou.xml"/>
        <additional-files value="barcelona.poly.xml, additionals.xml"/>
    </input>

    <time>
        <begin value="0"/>
        <end value="2000"/>  
        <step-length value="1"/>
    </time>
</configuration>
