<?xml version="1.0" encoding="UTF-8"?>

<!-- generated on dom 14 jul 2019 18:11:39 CEST by Netedit Version 0.32.0
<?xml version="1.0" encoding="UTF-8"?>

<configuration xmlns:xsi="http://www.w3.org/2001/XMLSchema-instance" xsi:noNamespaceSchemaLocation="http://sumo.dlr.de/xsd/netconvertConfiguration.xsd">

    <input>
        <sumo-net-file value="/media/root/SG2T7/V6_RESTRICTION/RESPALDO_REVISOR/PTP_WITH_STOP/PTP_V8/veins2/examples/pablo/barcelona.net.xml"/>
    </input>

    <output>
        <output-file value="/media/root/SG2T7/V6_RESTRICTION/RESPALDO_REVISOR/PTP_WITH_STOP/PTP_V8/veins2/examples/pablo/barcelona.net.xml"/>
    </output>

    <processing>
        <no-turnarounds value="true"/>
        <offset.disable-normalization value="true"/>
        <lefthand value="false"/>
        <junctions.corner-detail value="0"/>
        <rectangular-lane-cut value="false"/>
        <walkingareas value="false"/>
    </processing>

</configuration>
-->

<net version="0.27" xmlns:xsi="http://www.w3.org/2001/XMLSchema-instance" xsi:noNamespaceSchemaLocation="http://sumo.dlr.de/xsd/net_file.xsd">

    <location netOffset="-426680.13,-4580320.94" convBoundary="44.55,708.37,2107.05,2783.02" origBoundary="2.090456,41.366920,2.192108,41.416791" projParameter="+proj=utm +zone=31 +ellps=WGS84 +datum=WGS84 +units=m +no_defs"/>

    <type id="highway.bridleway" priority="1" numLanes="1" speed="2.78" allow="pedestrian" oneway="1" width="2.00"/>
    <type id="highway.bus_guideway" priority="1" numLanes="1" speed="8.33" allow="bus" oneway="1"/>
    <type id="highway.cycleway" priority="1" numLanes="1" speed="5.56" allow="bicycle" oneway="0" width="1.00"/>
    <type id="highway.footway" priority="1" numLanes="1" speed="2.78" allow="pedestrian" oneway="1" width="2.00"/>
    <type id="highway.ford" priority="1" numLanes="1" speed="2.78" allow="army" oneway="0"/>
    <type id="highway.living_street" priority="3" numLanes="1" speed="2.78" disallow="tram rail_urban rail rail_electric ship" oneway="0"/>
    <type id="highway.motorway" priority="13" numLanes="2" speed="44.44" allow="private emergency authority army vip passenger hov taxi bus coach delivery truck trailer motorcycle evehicle custom1 custom2" oneway="1"/>
    <type id="highway.motorway_link" priority="12" numLanes="1" speed="22.22" allow="private emergency authority army vip passenger hov taxi bus coach delivery truck trailer motorcycle evehicle custom1 custom2" oneway="1"/>
    <type id="highway.path" priority="1" numLanes="1" speed="2.78" allow="bicycle pedestrian" oneway="1" width="2.00"/>
    <type id="highway.pedestrian" priority="1" numLanes="1" speed="2.78" allow="pedestrian" oneway="1" width="2.00"/>
    <type id="highway.primary" priority="9" numLanes="2" speed="27.78" disallow="tram rail_urban rail rail_electric ship" oneway="0"/>
    <type id="highway.primary_link" priority="8" numLanes="1" speed="22.22" disallow="tram rail_urban rail rail_electric ship" oneway="0"/>
    <type id="highway.raceway" priority="14" numLanes="2" speed="83.33" allow="vip" oneway="0"/>
    <type id="highway.residential" priority="4" numLanes="1" speed="13.89" disallow="tram rail_urban rail rail_electric ship" oneway="0"/>
    <type id="highway.secondary" priority="7" numLanes="2" speed="27.78" disallow="tram rail_urban rail rail_electric ship" oneway="0"/>
    <type id="highway.secondary_link" priority="6" numLanes="1" speed="22.22" disallow="tram rail_urban rail rail_electric ship" oneway="0"/>
    <type id="highway.service" priority="2" numLanes="1" speed="5.56" allow="delivery bicycle pedestrian" oneway="0"/>
    <type id="highway.services" priority="1" numLanes="1" speed="8.33" disallow="tram rail_urban rail rail_electric ship" oneway="0"/>
    <type id="highway.stairs" priority="1" numLanes="1" speed="1.39" allow="pedestrian" oneway="1" width="2.00"/>
    <type id="highway.step" priority="1" numLanes="1" speed="1.39" allow="pedestrian" oneway="1" width="2.00"/>
    <type id="highway.steps" priority="1" numLanes="1" speed="1.39" allow="pedestrian" oneway="1" width="2.00"/>
    <type id="highway.tertiary" priority="6" numLanes="1" speed="22.22" disallow="tram rail_urban rail rail_electric ship" oneway="0"/>
    <type id="highway.tertiary_link" priority="5" numLanes="1" speed="22.22" disallow="tram rail_urban rail rail_electric ship" oneway="0"/>
    <type id="highway.track" priority="1" numLanes="1" speed="5.56" disallow="tram rail_urban rail rail_electric ship" oneway="0"/>
    <type id="highway.trunk" priority="11" numLanes="2" speed="27.78" disallow="tram rail_urban rail rail_electric bicycle pedestrian ship" oneway="0"/>
    <type id="highway.trunk_link" priority="10" numLanes="1" speed="22.22" disallow="tram rail_urban rail rail_electric bicycle pedestrian ship" oneway="0"/>
    <type id="highway.unclassified" priority="5" numLanes="1" speed="13.89" disallow="tram rail_urban rail rail_electric ship" oneway="0"/>
    <type id="highway.unsurfaced" priority="1" numLanes="1" speed="8.33" disallow="tram rail_urban rail rail_electric ship" oneway="0"/>
    <type id="railway.light_rail" priority="15" numLanes="1" speed="27.78" allow="rail_urban" oneway="1"/>
    <type id="railway.preserved" priority="15" numLanes="1" speed="27.78" allow="rail" oneway="1"/>
    <type id="railway.rail" priority="15" numLanes="1" speed="83.33" allow="rail rail_electric" oneway="1"/>
    <type id="railway.subway" priority="15" numLanes="1" speed="27.78" allow="rail_urban" oneway="1"/>
    <type id="railway.tram" priority="15" numLanes="1" speed="13.89" allow="tram" oneway="1"/>

    <edge id=":1000063811_0" function="internal">
        <lane id=":1000063811_0_0" index="0" disallow="tram rail_urban rail rail_electric ship" speed="22.22" length="5.60" shape="467.15,955.47 467.17,954.25 466.75,953.07 465.90,951.92 464.62,950.80"/>
    </edge>
    <edge id=":1000063811_1" function="internal">
        <lane id=":1000063811_1_0" index="0" disallow="tram rail_urban rail rail_electric ship" speed="22.22" length="6.21" shape="467.15,955.47 467.51,953.66 467.81,952.43 468.19,951.23 468.77,949.48"/>
    </edge>
    <edge id=":1000063812_0" function="internal">
        <lane id=":1000063812_0_0" index="0" disallow="tram rail_urban rail rail_electric ship" speed="22.22" length="5.83" shape="414.97,914.02 413.44,913.17 412.27,913.17 411.48,914.03 411.06,915.73"/>
    </edge>
    <edge id=":1000063812_1" function="internal">
        <lane id=":1000063812_1_0" index="0" disallow="tram rail_urban rail rail_electric ship" speed="22.22" length="8.64" shape="414.97,914.02 412.19,911.87 410.24,910.17 409.14,908.91 408.87,908.10"/>
    </edge>
    <edge id=":1000063812_2" function="internal">
        <lane id=":1000063812_2_0" index="0" disallow="tram rail_urban rail rail_electric ship" speed="22.22" length="6.90" shape="412.06,908.91 411.60,910.90 411.39,912.29 411.26,913.69 411.06,915.73"/>
    </edge>
    <edge id=":1000063812_3" function="internal">
        <lane id=":1000063812_3_0" index="0" disallow="tram rail_urban rail rail_electric ship" speed="22.22" length="2.41" shape="412.06,908.91 410.96,909.90 410.06,910.10"/>
    </edge>
    <edge id=":1000063812_6" function="internal">
        <lane id=":1000063812_6_0" index="0" speed="22.22" length="2.41" shape="410.06,910.10 409.36,909.50 408.87,908.10"/>
    </edge>
    <edge id=":1000063812_4" function="internal">
        <lane id=":1000063812_4_0" index="0" disallow="tram rail_urban rail rail_electric ship" speed="22.22" length="7.36" shape="407.43,915.31 408.87,908.10"/>
    </edge>
    <edge id=":1000063812_5" function="internal">
        <lane id=":1000063812_5_0" index="0" disallow="tram rail_urban rail rail_electric ship" speed="22.22" length="2.88" shape="407.43,915.31 408.49,914.06 409.45,913.71 409.64,913.83"/>
    </edge>
    <edge id=":1000063812_7" function="internal">
        <lane id=":1000063812_7_0" index="0" speed="22.22" length="2.44" shape="409.64,913.83 410.31,914.26 411.06,915.73"/>
    </edge>
    <edge id=":1000063814_0" function="internal">
        <lane id=":1000063814_0_0" index="0" disallow="tram rail_urban rail rail_electric ship" speed="22.22" length="6.12" shape="446.36,973.04 445.03,971.84 443.95,971.21 442.83,970.62 441.39,969.52"/>
    </edge>
    <edge id=":1000063814_1" function="internal">
        <lane id=":1000063814_1_0" index="0" disallow="tram rail_urban rail rail_electric ship" speed="22.22" length="3.77" shape="446.36,973.04 444.64,970.81 444.50,969.87"/>
    </edge>
    <edge id=":1000063814_4" function="internal">
        <lane id=":1000063814_4_0" index="0" speed="22.22" length="4.66" shape="444.50,969.87 444.45,969.54 445.80,969.23 448.67,969.88"/>
    </edge>
    <edge id=":1000063814_2" function="internal">
        <lane id=":1000063814_2_0" index="0" disallow="tram rail_urban rail rail_electric ship" speed="22.22" length="5.86" shape="443.62,967.09 444.92,968.22 445.91,968.89 447.02,969.36 448.67,969.88"/>
    </edge>
    <edge id=":1000063814_3" function="internal">
        <lane id=":1000063814_3_0" index="0" disallow="tram rail_urban rail rail_electric ship" speed="22.22" length="2.29" shape="443.62,967.09 443.98,968.53 443.76,969.30"/>
    </edge>
    <edge id=":1000063814_5" function="internal">
        <lane id=":1000063814_5_0" index="0" speed="22.22" length="2.53" shape="443.76,969.30 443.72,969.42 442.86,969.75 441.39,969.52"/>
    </edge>
    <edge id=":1000063817_0" function="internal">
        <lane id=":1000063817_0_0" index="0" disallow="tram rail_urban rail rail_electric ship" speed="22.22" length="0.20" shape="455.16,971.89 455.22,971.91 455.26,971.92 455.30,971.94 455.35,971.96"/>
    </edge>
    <edge id=":1000063822_0" function="internal">
        <lane id=":1000063822_0_0" index="0" disallow="tram rail_urban rail rail_electric ship" speed="19.45" length="3.09" shape="478.88,964.57 479.53,961.55"/>
    </edge>
    <edge id=":1000063822_1" function="internal">
        <lane id=":1000063822_1_0" index="0" disallow="tram rail_urban rail rail_electric ship" speed="16.67" length="1.54" shape="482.46,963.61 482.77,962.15"/>
        <lane id=":1000063822_1_1" index="1" disallow="tram rail_urban rail rail_electric ship" speed="16.67" length="1.54" shape="485.68,964.31 486.02,962.76"/>
    </edge>
    <edge id=":1000063825_0" function="internal">
        <lane id=":1000063825_0_0" index="0" disallow="tram rail_urban rail rail_electric ship" speed="19.45" length="3.78" shape="466.68,1013.17 466.93,1012.08 467.02,1011.31 466.93,1010.54 466.66,1009.46"/>
    </edge>
    <edge id=":1000063825_1" function="internal">
        <lane id=":1000063825_1_0" index="0" disallow="tram rail_urban rail rail_electric ship" speed="16.67" length="3.74" shape="469.88,1013.98 470.75,1010.34"/>
        <lane id=":1000063825_1_1" index="1" disallow="tram rail_urban rail rail_electric ship" speed="16.67" length="3.74" shape="473.07,1014.80 473.95,1011.16"/>
    </edge>
    <edge id=":1000063827_0" function="internal">
        <lane id=":1000063827_0_0" index="0" disallow="tram rail_urban rail rail_electric ship" speed="18.05" length="11.73" shape="452.69,987.23 452.19,983.97 451.86,981.29 451.10,978.83 449.30,976.25"/>
    </edge>
    <edge id=":1000063827_1" function="internal">
        <lane id=":1000063827_1_0" index="0" disallow="tram rail_urban rail rail_electric ship" speed="22.22" length="11.88" shape="456.06,985.96 454.46,983.12 453.04,980.85 451.44,978.70 449.30,976.25"/>
    </edge>
    <edge id=":1000063828_0" function="internal">
        <lane id=":1000063828_0_0" index="0" disallow="tram rail_urban rail rail_electric ship" speed="18.05" length="5.09" shape="430.16,873.52 428.88,872.91 427.75,872.89 426.75,873.43 425.90,874.55"/>
    </edge>
    <edge id=":1000063828_1" function="internal">
        <lane id=":1000063828_1_0" index="0" disallow="tram rail_urban rail rail_electric ship" speed="13.89" length="9.49" shape="430.16,873.52 422.29,868.22"/>
    </edge>
    <edge id=":1000063828_2" function="internal">
        <lane id=":1000063828_2_0" index="0" disallow="tram rail_urban rail rail_electric ship" speed="13.89" length="14.46" shape="430.16,873.52 428.42,869.40 428.76,866.66 431.15,865.27 435.62,865.26"/>
    </edge>
    <edge id=":1000063828_3" function="internal">
        <lane id=":1000063828_3_0" index="0" disallow="tram rail_urban rail rail_electric ship" speed="13.89" length="9.43" shape="431.98,870.76 424.16,865.50"/>
    </edge>
    <edge id=":1000063828_4" function="internal">
        <lane id=":1000063828_4_0" index="0" disallow="tram rail_urban rail rail_electric ship" speed="13.89" length="4.82" shape="431.98,870.76 431.40,869.39 431.51,868.48 432.31,868.01 433.80,868.01"/>
    </edge>
    <edge id=":1000063828_5" function="internal">
        <lane id=":1000063828_5_0" index="0" disallow="tram rail_urban rail rail_electric ship" speed="13.89" length="9.33" shape="427.90,860.06 435.62,865.26"/>
        <lane id=":1000063828_5_1" index="1" disallow="tram rail_urban rail rail_electric ship" speed="13.89" length="9.33" shape="426.03,862.78 433.80,868.01"/>
    </edge>
    <edge id=":1000063828_7" function="internal">
        <lane id=":1000063828_7_0" index="0" disallow="tram rail_urban rail rail_electric ship" speed="18.05" length="12.95" shape="426.03,862.78 427.77,864.72 428.33,867.33 427.70,870.61 425.90,874.55"/>
    </edge>
    <edge id=":1000063828_8" function="internal">
        <lane id=":1000063828_8_0" index="0" disallow="tram rail_urban rail rail_electric ship" speed="13.89" length="4.82" shape="426.03,862.78 426.58,864.16 426.45,865.08 425.65,865.52 424.16,865.50"/>
    </edge>
    <edge id=":1000063828_9" function="internal">
        <lane id=":1000063828_9_0" index="0" disallow="tram rail_urban rail rail_electric ship" speed="18.05" length="5.33" shape="423.02,872.93 423.61,871.50 423.69,870.23 423.25,869.14 422.29,868.22"/>
    </edge>
    <edge id=":1000063828_10" function="internal">
        <lane id=":1000063828_10_0" index="0" disallow="tram rail_urban rail rail_electric ship" speed="18.05" length="13.59" shape="423.02,872.93 425.54,869.33 428.18,867.31 430.93,866.87 433.80,868.01"/>
    </edge>
    <edge id=":1000063828_11" function="internal">
        <lane id=":1000063828_11_0" index="0" disallow="tram rail_urban rail rail_electric ship" speed="22.22" length="4.82" shape="423.02,872.93 424.34,872.26 425.26,872.30 425.78,873.07 425.90,874.55"/>
    </edge>
    <edge id=":1002675605_0" function="internal">
        <lane id=":1002675605_0_0" index="0" disallow="tram rail_urban rail rail_electric ship" speed="13.89" length="0.38" shape="534.54,2352.61 534.08,2352.24"/>
        <lane id=":1002675605_0_1" index="1" disallow="tram rail_urban rail rail_electric ship" speed="13.89" length="0.38" shape="536.55,2349.99 536.26,2349.75"/>
        <lane id=":1002675605_0_2" index="2" disallow="tram rail_urban rail rail_electric ship" speed="13.89" length="0.38" shape="538.56,2347.37 538.43,2347.27"/>
    </edge>
    <edge id=":1002675607_0" function="internal">
        <lane id=":1002675607_0_0" index="0" disallow="tram rail_urban rail rail_electric ship" speed="13.89" length="58.85" shape="918.80,2730.40 916.55,2718.66 915.55,2700.94 914.33,2683.35 911.43,2671.99"/>
        <lane id=":1002675607_0_1" index="1" disallow="tram rail_urban rail rail_electric ship" speed="13.89" length="58.85" shape="922.23,2729.88 920.05,2718.20 919.20,2700.60 918.14,2683.13 915.31,2671.83"/>
    </edge>
    <edge id=":1002675783_0" function="internal">
        <lane id=":1002675783_0_0" index="0" disallow="tram rail_urban rail rail_electric ship" speed="13.89" length="0.33" shape="543.80,2340.17 543.84,2340.20 543.86,2340.23 543.89,2340.25 543.92,2340.28"/>
        <lane id=":1002675783_0_1" index="1" disallow="tram rail_urban rail rail_electric ship" speed="13.89" length="0.33" shape="541.46,2342.50 541.57,2342.60 541.64,2342.67 541.72,2342.74 541.83,2342.83"/>
    </edge>
    <edge id=":1002675821_0" function="internal">
        <lane id=":1002675821_0_0" index="0" speed="13.89" length="11.97" shape="943.15,2722.34 941.21,2725.04 940.28,2727.16 939.43,2729.34 937.72,2732.22"/>
        <lane id=":1002675821_0_1" index="1" speed="13.89" length="11.97" shape="940.65,2720.18 938.47,2723.17 937.39,2725.51 936.40,2727.90 934.47,2731.10"/>
    </edge>
    <edge id=":1002675821_2" function="internal">
        <lane id=":1002675821_2_0" index="0" speed="13.89" length="12.34" shape="936.58,2719.15 937.56,2724.19 938.08,2728.05 938.13,2730.72 937.72,2732.22"/>
        <lane id=":1002675821_2_1" index="1" speed="13.89" length="12.34" shape="933.36,2719.84 934.22,2724.24 934.70,2727.58 934.78,2729.86 934.47,2731.10"/>
    </edge>
    <edge id=":1012330321_0" function="internal">
        <lane id=":1012330321_0_0" index="0" disallow="tram rail_urban rail rail_electric ship" speed="13.89" length="5.33" shape="1564.33,1049.90 1563.50,1048.88 1562.85,1048.24 1562.06,1047.80 1560.83,1047.39"/>
        <lane id=":1012330321_0_1" index="1" disallow="tram rail_urban rail rail_electric ship" speed="13.89" length="5.33" shape="1564.33,1049.90 1561.74,1044.22"/>
    </edge>
    <edge id=":1012330321_2" function="internal">
        <lane id=":1012330321_2_0" index="0" disallow="tram rail_urban rail rail_electric ship" speed="13.89" length="4.65" shape="1565.93,1045.84 1564.38,1046.03 1563.35,1046.75 1562.34,1047.41 1560.83,1047.39"/>
        <lane id=":1012330321_2_1" index="1" disallow="tram rail_urban rail rail_electric ship" speed="13.89" length="4.65" shape="1566.39,1042.57 1564.97,1042.78 1564.04,1043.52 1563.12,1044.20 1561.74,1044.22"/>
        <lane id=":1012330321_2_2" index="2" disallow="tram rail_urban rail rail_electric ship" speed="13.89" length="4.65" shape="1566.85,1039.30 1562.64,1041.05"/>
        <lane id=":1012330321_2_3" index="3" disallow="tram rail_urban rail rail_electric ship" speed="13.89" length="4.65" shape="1567.31,1036.03 1563.55,1037.87"/>
        <lane id=":1012330321_2_4" index="4" disallow="tram rail_urban rail rail_electric ship" speed="13.89" length="4.65" shape="1567.77,1032.76 1564.46,1034.70"/>
    </edge>
    <edge id=":1012330330_0" function="internal">
        <lane id=":1012330330_0_0" index="0" disallow="tram rail_urban rail rail_electric ship" speed="13.89" length="16.43" shape="1583.08,1073.81 1579.47,1069.91 1577.00,1066.64 1574.99,1063.77 1572.74,1061.06"/>
    </edge>
    <edge id=":1012330330_1" function="internal">
        <lane id=":1012330330_1_0" index="0" disallow="tram rail_urban rail rail_electric ship" speed="13.89" length="16.66" shape="1583.08,1073.81 1579.22,1069.41 1577.24,1065.58 1577.15,1062.32 1578.95,1059.63"/>
    </edge>
    <edge id=":1012330330_2" function="internal">
        <lane id=":1012330330_2_0" index="0" disallow="tram rail_urban rail rail_electric ship" speed="13.89" length="13.62" shape="1583.08,1073.81 1580.24,1070.43 1578.97,1067.36 1579.27,1064.58 1581.13,1062.10"/>
    </edge>
    <edge id=":1012330330_3" function="internal">
        <lane id=":1012330330_3_0" index="0" disallow="tram rail_urban rail rail_electric ship" speed="13.89" length="8.07" shape="1585.38,1071.44 1583.49,1069.30 1582.52,1067.45 1582.46,1065.87 1583.31,1064.58"/>
    </edge>
    <edge id=":1012330330_4" function="internal">
        <lane id=":1012330330_4_0" index="0" disallow="tram rail_urban rail rail_electric ship" speed="13.89" length="5.09" shape="1585.38,1071.44 1584.52,1070.32 1584.25,1069.22 1584.57,1068.13 1585.49,1067.06"/>
    </edge>
    <edge id=":1012330330_5" function="internal">
        <lane id=":1012330330_5_0" index="0" disallow="tram rail_urban rail rail_electric ship" speed="13.89" length="7.12" shape="1572.79,1067.25 1573.99,1065.81 1574.37,1064.30 1573.96,1062.72 1572.74,1061.06"/>
    </edge>
    <edge id=":1012330330_6" function="internal">
        <lane id=":1012330330_6_0" index="0" disallow="tram rail_urban rail rail_electric ship" speed="13.89" length="9.84" shape="1572.79,1067.25 1574.79,1065.15 1575.87,1063.44 1576.95,1061.73 1578.95,1059.63"/>
        <lane id=":1012330330_6_1" index="1" disallow="tram rail_urban rail rail_electric ship" speed="13.89" length="9.84" shape="1574.98,1069.73 1576.97,1067.62 1578.05,1065.91 1579.13,1064.20 1581.13,1062.10"/>
        <lane id=":1012330330_6_2" index="2" disallow="tram rail_urban rail rail_electric ship" speed="13.89" length="9.84" shape="1577.16,1072.20 1579.15,1070.10 1580.23,1068.39 1581.32,1066.68 1583.31,1064.58"/>
        <lane id=":1012330330_6_3" index="3" disallow="tram rail_urban rail rail_electric ship" speed="13.89" length="9.84" shape="1577.16,1072.20 1579.50,1070.48 1581.32,1069.63 1583.16,1068.77 1585.49,1067.06"/>
    </edge>
    <edge id=":1012330342_0" function="internal">
        <lane id=":1012330342_0_0" index="0" disallow="tram rail_urban rail rail_electric ship" speed="13.89" length="5.44" shape="1779.82,1069.32 1778.83,1070.53 1778.59,1071.66 1779.09,1072.69 1780.35,1073.63"/>
    </edge>
    <edge id=":1012330342_1" function="internal">
        <lane id=":1012330342_1_0" index="0" disallow="tram rail_urban rail rail_electric ship" speed="18.05" length="6.87" shape="1779.82,1069.32 1778.33,1070.70 1777.35,1071.70 1776.49,1072.81 1775.35,1074.50"/>
    </edge>
    <edge id=":1012330342_2" function="internal">
        <lane id=":1012330342_2_0" index="0" disallow="tram rail_urban rail rail_electric ship" speed="13.89" length="6.89" shape="1774.35,1070.23 1780.35,1073.63"/>
    </edge>
    <edge id=":1012330342_3" function="internal">
        <lane id=":1012330342_3_0" index="0" disallow="tram rail_urban rail rail_electric ship" speed="18.05" length="5.06" shape="1774.35,1070.23 1775.44,1071.10 1775.97,1072.10 1775.94,1073.23 1775.35,1074.50"/>
    </edge>
    <edge id=":1121909724_0" function="internal">
        <lane id=":1121909724_0_0" index="0" speed="13.89" length="5.79" shape="1810.20,841.23 1811.76,842.11 1813.15,842.44 1814.38,842.22 1815.46,841.45"/>
    </edge>
    <edge id=":1121909724_1" function="internal">
        <lane id=":1121909724_1_0" index="0" speed="13.89" length="8.50" shape="1810.20,841.23 1812.93,842.97 1815.11,843.97 1816.75,844.22 1817.85,843.72"/>
    </edge>
    <edge id=":1121909724_2" function="internal">
        <lane id=":1121909724_2_0" index="0" disallow="tram rail_urban rail rail_electric ship" speed="18.05" length="16.87" shape="1810.20,841.23 1813.30,843.80 1816.40,846.91 1819.45,850.09 1822.36,852.90"/>
    </edge>
    <edge id=":1121909724_3" function="internal">
        <lane id=":1121909724_3_0" index="0" disallow="tram rail_urban rail rail_electric ship" speed="13.89" length="4.82" shape="1810.20,841.23 1810.74,842.62 1810.60,843.53 1809.78,843.96 1808.30,843.92"/>
    </edge>
    <edge id=":1121909724_4" function="internal">
        <lane id=":1121909724_4_0" index="0" disallow="tram rail_urban rail rail_electric ship" speed="13.89" length="5.23" shape="1808.63,848.28 1809.53,847.12 1809.78,846.00 1809.36,844.93 1808.30,843.92"/>
    </edge>
    <edge id=":1121909724_5" function="internal">
        <lane id=":1121909724_5_0" index="0" speed="13.89" length="9.72" shape="1808.63,848.28 1815.46,841.45"/>
        <lane id=":1121909724_5_1" index="1" speed="13.89" length="9.72" shape="1810.93,850.65 1817.85,843.72"/>
    </edge>
    <edge id=":1121909724_7" function="internal">
        <lane id=":1121909724_7_0" index="0" disallow="tram rail_urban rail rail_electric ship" speed="18.05" length="10.24" shape="1813.23,853.02 1815.46,851.40 1817.72,850.85 1820.02,851.35 1822.36,852.90"/>
    </edge>
    <edge id=":1121909859_0" function="internal">
        <lane id=":1121909859_0_0" index="0" disallow="tram rail_urban rail rail_electric ship" speed="13.89" length="0.29" shape="1776.47,817.37 1776.71,817.55"/>
    </edge>
    <edge id=":1126035505_0" function="internal">
        <lane id=":1126035505_0_0" index="0" disallow="tram rail_urban rail rail_electric ship" speed="13.89" length="4.30" shape="529.74,2310.31 530.18,2311.24 530.54,2311.85 530.97,2312.41 531.66,2313.17"/>
        <lane id=":1126035505_0_1" index="1" disallow="tram rail_urban rail rail_electric ship" speed="13.89" length="4.30" shape="529.74,2310.31 529.23,2315.40"/>
    </edge>
    <edge id=":1126035505_2" function="internal">
        <lane id=":1126035505_2_0" index="0" disallow="tram rail_urban rail rail_electric ship" speed="18.05" length="3.98" shape="527.02,2312.93 531.66,2313.17"/>
        <lane id=":1126035505_2_1" index="1" disallow="tram rail_urban rail rail_electric ship" speed="18.05" length="3.98" shape="527.02,2312.93 529.23,2315.40"/>
    </edge>
    <edge id=":126781126_0" function="internal">
        <lane id=":126781126_0_0" index="0" disallow="tram rail_urban rail rail_electric ship" speed="16.67" length="0.43" shape="344.77,1849.63 344.69,1849.06"/>
        <lane id=":126781126_0_1" index="1" disallow="tram rail_urban rail rail_electric ship" speed="16.67" length="0.43" shape="348.02,1849.10 347.97,1848.68"/>
        <lane id=":126781126_0_2" index="2" disallow="tram rail_urban rail rail_electric ship" speed="16.67" length="0.43" shape="351.28,1848.58 351.24,1848.29"/>
    </edge>
    <edge id=":126781127_0" function="internal">
        <lane id=":126781127_0_0" index="0" disallow="tram rail_urban rail rail_electric ship" speed="16.67" length="0.28" shape="380.86,2005.74 380.77,2005.41"/>
        <lane id=":126781127_0_1" index="1" disallow="tram rail_urban rail rail_electric ship" speed="16.67" length="0.28" shape="384.05,2004.88 383.98,2004.60"/>
        <lane id=":126781127_0_2" index="2" disallow="tram rail_urban rail rail_electric ship" speed="16.67" length="0.28" shape="387.23,2004.01 387.18,2003.80"/>
    </edge>
    <edge id=":126781129_0" function="internal">
        <lane id=":126781129_0_0" index="0" disallow="tram rail_urban rail rail_electric ship" speed="16.67" length="19.68" shape="439.08,2188.36 432.06,2169.97"/>
    </edge>
    <edge id=":126781129_1" function="internal">
        <lane id=":126781129_1_0" index="0" disallow="tram rail_urban rail rail_electric ship" speed="15.28" length="19.89" shape="442.28,2187.42 439.83,2182.05 438.40,2178.26 437.13,2174.40 435.15,2168.82"/>
        <lane id=":126781129_1_1" index="1" disallow="tram rail_urban rail rail_electric ship" speed="15.28" length="19.89" shape="445.34,2186.17 442.90,2180.82 441.47,2177.05 440.21,2173.22 438.24,2167.66"/>
    </edge>
    <edge id=":126781132_0" function="internal">
        <lane id=":126781132_0_0" index="0" disallow="tram rail_urban rail rail_electric ship" speed="13.89" length="0.59" shape="553.25,2356.36 553.31,2356.20 553.36,2356.09 553.43,2355.99 553.54,2355.85"/>
    </edge>
    <edge id=":126781133_0" function="internal">
        <lane id=":126781133_0_0" index="0" disallow="tram rail_urban rail rail_electric ship" speed="13.89" length="8.91" shape="624.22,2385.96 624.51,2388.03 625.40,2389.89 626.89,2391.55 628.97,2393.00"/>
    </edge>
    <edge id=":126781133_1" function="internal">
        <lane id=":126781133_1_0" index="0" disallow="tram rail_urban rail rail_electric ship" speed="13.89" length="8.96" shape="620.75,2389.67 622.84,2391.17 624.62,2391.66 626.51,2391.99 628.97,2393.00"/>
        <lane id=":126781133_1_1" index="1" disallow="tram rail_urban rail rail_electric ship" speed="13.89" length="8.96" shape="619.14,2392.70 621.23,2394.17 623.00,2394.61 624.89,2394.89 627.34,2395.87"/>
    </edge>
    <edge id=":126781137_0" function="internal">
        <lane id=":126781137_0_0" index="0" disallow="tram rail_urban rail rail_electric ship" speed="13.89" length="7.07" shape="875.65,2581.00 877.06,2582.83 878.18,2583.31 879.03,2582.43 879.60,2580.19"/>
    </edge>
    <edge id=":126781137_1" function="internal">
        <lane id=":126781137_1_0" index="0" disallow="tram rail_urban rail rail_electric ship" speed="13.89" length="8.07" shape="875.65,2581.00 879.87,2587.85"/>
        <lane id=":126781137_1_1" index="1" disallow="tram rail_urban rail rail_electric ship" speed="13.89" length="8.07" shape="872.84,2582.73 877.09,2589.62"/>
    </edge>
    <edge id=":1297711692_0" function="internal">
        <lane id=":1297711692_0_0" index="0" disallow="tram rail_urban rail rail_electric ship" speed="13.89" length="0.37" shape="418.32,1244.95 418.05,1244.71"/>
    </edge>
    <edge id=":1297711692_1" function="internal">
        <lane id=":1297711692_1_0" index="0" disallow="tram rail_urban rail rail_electric ship" speed="13.89" length="2.41" shape="418.32,1244.95 417.88,1243.53 418.08,1242.63"/>
    </edge>
    <edge id=":1297711692_4" function="internal">
        <lane id=":1297711692_4_0" index="0" speed="13.89" length="2.41" shape="418.08,1242.63 418.92,1242.25 420.40,1242.39"/>
    </edge>
    <edge id=":1297711692_2" function="internal">
        <lane id=":1297711692_2_0" index="0" disallow="tram rail_urban rail rail_electric ship" speed="13.89" length="0.12" shape="420.31,1242.31 420.40,1242.39"/>
    </edge>
    <edge id=":1297711692_3" function="internal">
        <lane id=":1297711692_3_0" index="0" disallow="tram rail_urban rail rail_electric ship" speed="13.89" length="2.41" shape="420.31,1242.31 420.65,1243.76 420.38,1244.64"/>
    </edge>
    <edge id=":1297711692_5" function="internal">
        <lane id=":1297711692_5_0" index="0" speed="13.89" length="2.41" shape="420.38,1244.64 419.52,1244.96 418.05,1244.71"/>
    </edge>
    <edge id=":1297744704_0" function="internal">
        <lane id=":1297744704_0_0" index="0" disallow="tram rail_urban rail rail_electric ship" speed="13.89" length="8.25" shape="1790.90,2139.94 1788.73,2137.94 1786.86,2136.58 1785.30,2135.87 1784.03,2135.79"/>
    </edge>
    <edge id=":1297744704_1" function="internal">
        <lane id=":1297744704_1_0" index="0" disallow="tram rail_urban rail rail_electric ship" speed="13.89" length="10.61" shape="1790.90,2139.94 1789.55,2138.46 1787.22,2135.91 1784.83,2133.53 1783.33,2132.56"/>