<?xml version="1.0" encoding="UTF-8"?>

<!-- generated on dom 17 nov 2019 13:52:50 CET by Netedit Version 0.32.0
<?xml version="1.0" encoding="UTF-8"?>

<configuration xmlns:xsi="http://www.w3.org/2001/XMLSchema-instance" xsi:noNamespaceSchemaLocation="http://sumo.dlr.de/xsd/netconvertConfiguration.xsd">

    <input>
        <sumo-net-file value="/root/Desktop/NEW_MAP_BCN/sfamilia.net.xml"/>
    </input>

    <output>
        <output-file value="/root/Desktop/NEW_MAP_BCN/sfamilia.net.xml"/>
    </output>

    <processing>
        <no-turnarounds value="true"/>
        <offset.disable-normalization value="true"/>
        <lefthand value="false"/>
        <junctions.corner-detail value="0"/>
        <rectangular-lane-cut value="false"/>
        <walkingareas value="false"/>
    </processing>

</configuration>
-->

<net version="0.27" xmlns:xsi="http://www.w3.org/2001/XMLSchema-instance" xsi:noNamespaceSchemaLocation="http://sumo.dlr.de/xsd/net_file.xsd">

    <location netOffset="-432038.16,-4582271.17" convBoundary="182.80,292.64,1788.20,1763.61" origBoundary="2.163011,41.381063,2.223719,41.430217" projParameter="+proj=utm +zone=31 +ellps=WGS84 +datum=WGS84 +units=m +no_defs"/>

    <type id="highway.bridleway" priority="1" numLanes="1" speed="2.78" allow="pedestrian" oneway="1" width="2.00"/>
    <type id="highway.bus_guideway" priority="1" numLanes="1" speed="27.78" allow="bus" oneway="1"/>
    <type id="highway.cycleway" priority="1" numLanes="1" speed="8.33" allow="bicycle" oneway="0" width="1.00"/>
    <type id="highway.footway" priority="1" numLanes="1" speed="2.78" allow="pedestrian" oneway="1" width="2.00"/>
    <type id="highway.ford" priority="1" numLanes="1" speed="2.78" allow="army" oneway="0"/>
    <type id="highway.living_street" priority="3" numLanes="1" speed="2.78" disallow="tram rail_urban rail rail_electric ship" oneway="0"/>
    <type id="highway.motorway" priority="13" numLanes="2" speed="44.44" allow="private emergency authority army vip passenger hov taxi bus coach delivery truck trailer motorcycle evehicle custom1 custom2" oneway="1"/>
    <type id="highway.motorway_link" priority="12" numLanes="1" speed="22.22" allow="private emergency authority army vip passenger hov taxi bus coach delivery truck trailer motorcycle evehicle custom1 custom2" oneway="1"/>
    <type id="highway.path" priority="1" numLanes="1" speed="2.78" allow="bicycle pedestrian" oneway="1" width="2.00"/>
    <type id="highway.pedestrian" priority="1" numLanes="1" speed="2.78" allow="pedestrian" oneway="1" width="2.00"/>
    <type id="highway.primary" priority="9" numLanes="2" speed="27.78" disallow="tram rail_urban rail rail_electric ship" oneway="0"/>
    <type id="highway.primary_link" priority="8" numLanes="1" speed="22.22" disallow="tram rail_urban rail rail_electric ship" oneway="0"/>
    <type id="highway.raceway" priority="14" numLanes="2" speed="83.33" allow="vip" oneway="0"/>
    <type id="highway.residential" priority="4" numLanes="1" speed="13.89" disallow="tram rail_urban rail rail_electric ship" oneway="0"/>
    <type id="highway.secondary" priority="7" numLanes="2" speed="27.78" disallow="tram rail_urban rail rail_electric ship" oneway="0"/>
    <type id="highway.secondary_link" priority="6" numLanes="1" speed="22.22" disallow="tram rail_urban rail rail_electric ship" oneway="0"/>
    <type id="highway.service" priority="2" numLanes="1" speed="5.56" allow="delivery bicycle pedestrian" oneway="0"/>
    <type id="highway.stairs" priority="1" numLanes="1" speed="1.39" allow="pedestrian" oneway="1" width="2.00"/>
    <type id="highway.step" priority="1" numLanes="1" speed="1.39" allow="pedestrian" oneway="1" width="2.00"/>
    <type id="highway.steps" priority="1" numLanes="1" speed="1.39" allow="pedestrian" oneway="1" width="2.00"/>
    <type id="highway.tertiary" priority="6" numLanes="1" speed="22.22" disallow="tram rail_urban rail rail_electric ship" oneway="0"/>
    <type id="highway.tertiary_link" priority="5" numLanes="1" speed="22.22" disallow="tram rail_urban rail rail_electric ship" oneway="0"/>
    <type id="highway.track" priority="1" numLanes="1" speed="5.56" disallow="tram rail_urban rail rail_electric ship" oneway="0"/>
    <type id="highway.trunk" priority="11" numLanes="2" speed="27.78" disallow="tram rail_urban rail rail_electric bicycle pedestrian ship" oneway="0"/>
    <type id="highway.trunk_link" priority="10" numLanes="1" speed="22.22" disallow="tram rail_urban rail rail_electric bicycle pedestrian ship" oneway="0"/>
    <type id="highway.unclassified" priority="5" numLanes="1" speed="13.89" disallow="tram rail_urban rail rail_electric ship" oneway="0"/>
    <type id="highway.unsurfaced" priority="1" numLanes="1" speed="8.33" disallow="tram rail_urban rail rail_electric ship" oneway="0"/>
    <type id="railway.light_rail" priority="15" numLanes="1" speed="27.78" allow="rail_urban" oneway="1"/>
    <type id="railway.preserved" priority="15" numLanes="1" speed="27.78" allow="rail" oneway="1"/>
    <type id="railway.rail" priority="15" numLanes="1" speed="83.33" allow="rail rail_electric" oneway="1"/>
    <type id="railway.subway" priority="15" numLanes="1" speed="27.78" allow="rail_urban" oneway="1"/>
    <type id="railway.tram" priority="15" numLanes="1" speed="13.89" allow="tram" oneway="1"/>

    <edge id=":1043905517_0" function="internal">
        <lane id=":1043905517_0_0" index="0" disallow="tram rail_urban rail rail_electric ship" speed="27.78" length="0.31" shape="1704.33,1203.81 1704.11,1204.03"/>
    </edge>
    <edge id=":1043905517_1" function="internal">
        <lane id=":1043905517_1_0" index="0" disallow="tram rail_urban rail rail_electric ship" speed="27.78" length="0.29" shape="1701.78,1201.70 1701.98,1201.49"/>
    </edge>
    <edge id=":1043905565_0" function="internal">
        <lane id=":1043905565_0_0" index="0" disallow="tram rail_urban rail rail_electric ship" speed="5.56" length="6.24" shape="1413.34,977.01 1409.04,972.49"/>
    </edge>
    <edge id=":1043905565_1" function="internal">
        <lane id=":1043905565_1_0" index="0" disallow="tram rail_urban rail rail_electric ship" speed="9.73" length="5.07" shape="1413.34,977.01 1412.52,975.89 1412.27,974.78 1412.60,973.69 1413.50,972.62"/>
    </edge>
    <edge id=":1043905685_0" function="internal">
        <lane id=":1043905685_0_0" index="0" disallow="tram rail_urban rail rail_electric ship" speed="27.78" length="6.21" shape="1555.21,847.93 1550.97,843.40"/>
        <lane id=":1043905685_0_1" index="1" disallow="tram rail_urban rail rail_electric ship" speed="27.78" length="6.21" shape="1557.62,845.67 1553.37,841.14"/>
    </edge>
    <edge id=":1043905685_2" function="internal">
        <lane id=":1043905685_2_0" index="0" disallow="tram rail_urban rail rail_electric ship" speed="20.84" length="5.00" shape="1550.83,847.79 1551.68,846.72 1551.99,845.63 1551.75,844.52 1550.97,843.40"/>
    </edge>
    <edge id=":1043925396_0" function="internal">
        <lane id=":1043925396_0_0" index="0" disallow="tram rail_urban rail rail_electric ship" speed="22.22" length="0.30" shape="1025.20,461.67 1025.00,461.45"/>
    </edge>
    <edge id=":1043925401_0" function="internal">
        <lane id=":1043925401_0_0" index="0" disallow="tram rail_urban rail rail_electric ship" speed="13.89" length="0.29" shape="890.58,566.80 890.78,567.00"/>
    </edge>
    <edge id=":1044543169_0" function="internal">
        <lane id=":1044543169_0_0" index="0" disallow="tram rail_urban rail rail_electric ship" speed="27.78" length="6.17" shape="1758.42,1089.46 1754.43,1084.72"/>
        <lane id=":1044543169_0_1" index="1" disallow="tram rail_urban rail rail_electric ship" speed="27.78" length="6.17" shape="1760.93,1087.33 1756.97,1082.61"/>
    </edge>
    <edge id=":1044543169_2" function="internal">
        <lane id=":1044543169_2_0" index="0" disallow="tram rail_urban rail rail_electric ship" speed="27.78" length="6.12" shape="1762.05,1078.39 1765.97,1083.06"/>
        <lane id=":1044543169_2_1" index="1" disallow="tram rail_urban rail rail_electric ship" speed="27.78" length="6.12" shape="1759.51,1080.50 1763.45,1085.19"/>
    </edge>
    <edge id=":1044543169_4" function="internal">
        <lane id=":1044543169_4_0" index="0" disallow="tram rail_urban rail rail_electric ship" speed="15.28" length="5.06" shape="1754.04,1089.19 1754.93,1088.11 1755.30,1087.00 1755.13,1085.87 1754.43,1084.72"/>
    </edge>
    <edge id=":1044543169_5" function="internal">
        <lane id=":1044543169_5_0" index="0" disallow="tram rail_urban rail rail_electric ship" speed="15.28" length="11.07" shape="1754.04,1089.19 1757.32,1086.45 1759.98,1084.87 1762.02,1084.45 1763.45,1085.19"/>
    </edge>
    <edge id=":1044543194_0" function="internal">
        <lane id=":1044543194_0_0" index="0" disallow="tram rail_urban rail rail_electric ship" speed="13.89" length="0.30" shape="1619.48,1282.73 1619.69,1282.53"/>
        <lane id=":1044543194_0_1" index="1" disallow="tram rail_urban rail rail_electric ship" speed="13.89" length="0.30" shape="1621.79,1285.09 1622.00,1284.88"/>
    </edge>
    <edge id=":1207603865_0" function="internal">
        <lane id=":1207603865_0_0" index="0" disallow="tram rail_urban rail rail_electric ship" speed="13.89" length="5.03" shape="1452.60,937.61 1453.49,936.55 1453.82,935.46 1453.58,934.35 1452.79,933.22"/>
    </edge>
    <edge id=":1207603865_1" function="internal">
        <lane id=":1207603865_1_0" index="0" disallow="tram rail_urban rail rail_electric ship" speed="13.89" length="6.19" shape="1452.60,937.61 1457.23,933.50"/>
    </edge>
    <edge id=":1207605760_0" function="internal">
        <lane id=":1207605760_0_0" index="0" disallow="tram rail_urban rail rail_electric ship" speed="2.78" length="0.30" shape="1688.73,1149.71 1688.95,1149.51"/>
    </edge>
    <edge id=":1207605768_0" function="internal">
        <lane id=":1207605768_0_0" index="0" disallow="tram rail_urban rail rail_electric ship" speed="2.78" length="0.30" shape="1636.32,1095.85 1636.10,1096.05"/>
    </edge>
    <edge id=":1207612390_0" function="internal">
        <lane id=":1207612390_0_0" index="0" disallow="tram rail_urban rail rail_electric ship" speed="8.34" length="5.02" shape="1705.65,1129.74 1706.72,1130.60 1707.81,1130.91 1708.92,1130.68 1710.05,1129.90"/>
    </edge>
    <edge id=":1207612390_1" function="internal">
        <lane id=":1207612390_1_0" index="0" disallow="tram rail_urban rail rail_electric ship" speed="13.89" length="6.22" shape="1705.65,1129.74 1709.90,1134.28"/>
    </edge>
    <edge id=":1207612390_2" function="internal">
        <lane id=":1207612390_2_0" index="0" disallow="tram rail_urban rail rail_electric ship" speed="2.78" length="6.22" shape="1705.50,1134.12 1710.05,1129.90"/>
    </edge>
    <edge id=":1207612390_3" function="internal">
        <lane id=":1207612390_3_0" index="0" disallow="tram rail_urban rail rail_electric ship" speed="8.34" length="5.02" shape="1705.50,1134.12 1706.62,1133.34 1707.73,1133.11 1708.83,1133.42 1709.90,1134.28"/>
    </edge>
    <edge id=":1207612392_0" function="internal">
        <lane id=":1207612392_0_0" index="0" disallow="tram rail_urban rail rail_electric ship" speed="8.34" length="5.01" shape="1658.37,1074.81 1657.55,1075.89 1657.27,1076.99 1657.53,1078.10 1658.33,1079.23"/>
    </edge>
    <edge id=":1207612392_1" function="internal">
        <lane id=":1207612392_1_0" index="0" disallow="tram rail_urban rail rail_electric ship" speed="2.78" length="9.35" shape="1658.37,1074.81 1651.64,1081.29"/>
    </edge>
    <edge id=":1207612392_2" function="internal">
        <lane id=":1207612392_2_0" index="0" disallow="tram rail_urban rail rail_electric ship" speed="8.34" length="8.62" shape="1650.63,1075.82 1652.64,1077.22 1654.48,1077.53 1656.32,1077.83 1658.33,1079.23"/>
    </edge>
    <edge id=":1207612392_3" function="internal">
        <lane id=":1207612392_3_0" index="0" disallow="tram rail_urban rail rail_electric ship" speed="2.78" length="6.25" shape="1650.63,1075.82 1651.89,1077.44 1652.48,1078.89 1652.39,1080.17 1651.64,1081.29"/>
    </edge>
    <edge id=":1207612394_0" function="internal">
        <lane id=":1207612394_0_0" index="0" disallow="tram rail_urban rail rail_electric ship" speed="13.89" length="6.15" shape="1490.56,904.16 1495.11,900.03"/>
    </edge>
    <edge id=":1207612394_1" function="internal">
        <lane id=":1207612394_1_0" index="0" disallow="tram rail_urban rail rail_electric ship" speed="13.89" length="4.98" shape="1490.56,904.16 1491.70,903.42 1492.81,903.21 1493.89,903.54 1494.94,904.41"/>
    </edge>
    <edge id=":1207618829_0" function="internal">
        <lane id=":1207618829_0_0" index="0" disallow="tram rail_urban rail rail_electric ship" speed="5.56" length="6.38" shape="1510.84,1079.13 1506.48,1074.48"/>
    </edge>
    <edge id=":1207618829_1" function="internal">
        <lane id=":1207618829_1_0" index="0" disallow="tram rail_urban rail rail_electric ship" speed="4.17" length="5.44" shape="1510.84,1079.13 1509.94,1077.84 1509.77,1076.71 1510.35,1075.72 1511.68,1074.88"/>
    </edge>
    <edge id=":1207618835_0" function="internal">
        <lane id=":1207618835_0_0" index="0" disallow="tram rail_urban rail rail_electric ship" speed="2.78" length="0.24" shape="1563.15,1051.74 1563.37,1051.64"/>
    </edge>
    <edge id=":1306211540_0" function="internal">
        <lane id=":1306211540_0_0" index="0" disallow="tram rail_urban rail rail_electric ship" speed="27.78" length="0.30" shape="1602.36,900.47 1602.17,900.25"/>
        <lane id=":1306211540_0_1" index="1" disallow="tram rail_urban rail rail_electric ship" speed="27.78" length="0.30" shape="1604.88,898.34 1604.68,898.10"/>
    </edge>
    <edge id=":1306211541_0" function="internal">
        <lane id=":1306211541_0_0" index="0" disallow="tram rail_urban rail rail_electric ship" speed="27.78" length="0.26" shape="1612.86,912.90 1612.73,912.74"/>
        <lane id=":1306211541_0_1" index="1" disallow="tram rail_urban rail rail_electric ship" speed="27.78" length="0.26" shape="1615.44,910.84 1615.25,910.61"/>
    </edge>
    <edge id=":1306211567_0" function="internal">
        <lane id=":1306211567_0_0" index="0" disallow="tram rail_urban rail rail_electric ship" speed="8.34" length="0.30" shape="1547.20,965.38 1547.25,965.46 1547.28,965.51 1547.32,965.55 1547.38,965.62"/>
    </edge>
    <edge id=":1306211583_0" function="internal">
        <lane id=":1306211583_0_0" index="0" disallow="tram rail_urban rail rail_electric ship" speed="13.89" length="0.28" shape="1540.13,954.23 1540.18,954.29 1540.22,954.33 1540.25,954.38 1540.29,954.45"/>
    </edge>
    <edge id=":1373983168_0" function="internal">
        <lane id=":1373983168_0_0" index="0" disallow="tram rail_urban rail rail_electric ship" speed="27.78" length="0.31" shape="1256.22,512.15 1256.25,512.18 1256.27,512.21 1256.29,512.23 1256.32,512.26"/>
        <lane id=":1373983168_0_1" index="1" disallow="tram rail_urban rail rail_electric ship" speed="27.78" length="0.31" shape="1253.66,514.23 1253.75,514.34 1253.81,514.41 1253.88,514.48 1253.98,514.58"/>
    </edge>
    <edge id=":1621899798_0" function="internal">
        <lane id=":1621899798_0_0" index="0" disallow="tram rail_urban rail rail_electric ship" speed="13.89" length="6.35" shape="850.76,715.38 846.15,711.02"/>
    </edge>
    <edge id=":1621899798_1" function="internal">
        <lane id=":1621899798_1_0" index="0" disallow="tram rail_urban rail rail_electric ship" speed="13.89" length="1.60" shape="850.76,715.38 849.91,714.28 849.85,714.08"/>
    </edge>
    <edge id=":1621899798_4" function="internal">
        <lane id=":1621899798_4_0" index="0" speed="13.89" length="3.68" shape="849.85,714.08 849.58,713.13 849.79,711.92 850.52,710.65"/>
    </edge>
    <edge id=":1621899798_2" function="internal">
        <lane id=":1621899798_2_0" index="0" disallow="tram rail_urban rail rail_electric ship" speed="13.89" length="5.13" shape="846.34,715.48 847.15,714.36 847.39,713.25 847.05,712.13 846.15,711.02"/>
    </edge>
    <edge id=":1621899798_3" function="internal">
        <lane id=":1621899798_3_0" index="0" disallow="tram rail_urban rail rail_electric ship" speed="13.89" length="6.39" shape="846.34,715.48 847.66,714.12 848.54,713.16 849.36,712.16 850.52,710.65"/>
    </edge>
    <edge id=":1621899818_0" function="internal">
        <lane id=":1621899818_0_0" index="0" disallow="tram rail_urban rail rail_electric ship" speed="13.89" length="6.34" shape="1139.60,995.97 1135.03,991.57"/>
    </edge>
    <edge id=":1621899818_1" function="internal">
        <lane id=":1621899818_1_0" index="0" disallow="tram rail_urban rail rail_electric ship" speed="13.89" length="1.53" shape="1139.60,995.97 1138.74,994.85 1138.71,994.74"/>
    </edge>
    <edge id=":1621899818_4" function="internal">
        <lane id=":1621899818_4_0" index="0" speed="13.89" length="3.56" shape="1138.71,994.74 1138.47,993.75 1138.79,992.66 1139.70,991.58"/>
    </edge>
    <edge id=":1621899818_2" function="internal">
        <lane id=":1621899818_2_0" index="0" disallow="tram rail_urban rail rail_electric ship" speed="13.89" length="5.01" shape="1135.12,995.96 1135.93,994.84 1136.18,993.74 1135.88,992.65 1135.03,991.57"/>
    </edge>
    <edge id=":1621899818_3" function="internal">
        <lane id=":1621899818_3_0" index="0" disallow="tram rail_urban rail rail_electric ship" speed="13.89" length="6.34" shape="1135.12,995.96 1139.70,991.58"/>
    </edge>
    <edge id=":1621899820_0" function="internal">
        <lane id=":1621899820_0_0" index="0" disallow="tram rail_urban rail rail_electric ship" speed="13.89" length="0.30" shape="1089.18,948.06 1088.96,947.86"/>
    </edge>
    <edge id=":1621899821_0" function="internal">
        <lane id=":1621899821_0_0" index="0" disallow="tram rail_urban rail rail_electric ship" speed="13.89" length="6.28" shape="667.57,535.65 663.09,531.25"/>
    </edge>
    <edge id=":1621899821_1" function="internal">
        <lane id=":1621899821_1_0" index="0" disallow="tram rail_urban rail rail_electric ship" speed="13.89" length="1.51" shape="667.57,535.65 666.73,534.54 666.70,534.43"/>
    </edge>
    <edge id=":1621899821_4" function="internal">
        <lane id=":1621899821_4_0" index="0" speed="13.89" length="3.55" shape="666.70,534.43 666.46,533.43 666.77,532.34 667.66,531.27"/>
    </edge>
    <edge id=":1621899821_2" function="internal">
        <lane id=":1621899821_2_0" index="0" disallow="tram rail_urban rail rail_electric ship" speed="13.89" length="5.01" shape="663.14,535.65 663.95,534.53 664.21,533.43 663.93,532.34 663.09,531.25"/>
    </edge>
    <edge id=":1621899821_3" function="internal">
        <lane id=":1621899821_3_0" index="0" disallow="tram rail_urban rail rail_electric ship" speed="13.89" length="6.30" shape="663.14,535.65 667.66,531.27"/>
    </edge>
    <edge id=":1621899825_0" function="internal">
        <lane id=":1621899825_0_0" index="0" disallow="tram rail_urban rail rail_electric ship" speed="13.89" length="5.03" shape="762.12,630.30 760.99,629.49 759.88,629.23 758.78,629.50 757.69,630.33"/>
    </edge>
    <edge id=":1621899825_1" function="internal">
        <lane id=":1621899825_1_0" index="0" disallow="tram rail_urban rail rail_electric ship" speed="13.89" length="6.26" shape="762.12,630.30 757.66,625.90"/>
    </edge>
    <edge id=":1621899825_2" function="internal">
        <lane id=":1621899825_2_0" index="0" disallow="tram rail_urban rail rail_electric ship" speed="13.89" length="6.20" shape="762.05,625.91 757.69,630.33"/>
    </edge>
    <edge id=":1621899825_3" function="internal">
        <lane id=":1621899825_3_0" index="0" disallow="tram rail_urban rail rail_electric ship" speed="13.89" length="1.51" shape="762.05,625.91 760.95,626.75 760.83,626.78"/>
    </edge>
    <edge id=":1621899825_4" function="internal">
        <lane id=":1621899825_4_0" index="0" speed="13.89" length="3.52" shape="760.83,626.78 759.85,627.02 758.76,626.74 757.66,625.90"/>
    </edge>
    <edge id=":1621899831_0" function="internal">
        <lane id=":1621899831_0_0" index="0" disallow="tram rail_urban rail rail_electric ship" speed="18.05" length="5.00" shape="949.69,810.70 948.58,809.89 947.48,809.63 946.39,809.92 945.30,810.76"/>
    </edge>
    <edge id=":1621899831_1" function="internal">
        <lane id=":1621899831_1_0" index="0" disallow="tram rail_urban rail rail_electric ship" speed="13.89" length="12.81" shape="949.69,810.70 940.49,801.78"/>
    </edge>
    <edge id=":1621899831_2" function="internal">
        <lane id=":1621899831_2_0" index="0" disallow="tram rail_urban rail rail_electric ship" speed="22.22" length="6.79" shape="948.72,805.45 947.06,806.45 945.72,806.84 944.44,807.29 942.94,808.46"/>
        <lane id=":1621899831_2_1" index="1" disallow="tram rail_urban rail rail_electric ship" speed="22.22" length="6.79" shape="946.66,802.87 944.91,803.95 943.50,804.39 942.16,804.90 940.57,806.16"/>
    </edge>
    <edge id=":1621899831_4" function="internal">
        <lane id=":1621899831_4_0" index="0" disallow="tram rail_urban rail rail_electric ship" speed="18.05" length="6.92" shape="946.66,802.87 945.25,803.63 943.74,803.70 942.16,803.08 940.49,801.78"/>
    </edge>
    <edge id=":1621899834_0" function="internal">
        <lane id=":1621899834_0_0" index="0" disallow="tram rail_urban rail rail_electric ship" speed="13.89" length="6.43" shape="561.60,428.49 560.10,429.67 559.10,430.51 558.15,431.41 556.82,432.78"/>
    </edge>
    <edge id=":1621899836_0" function="internal">
        <lane id=":1621899836_0_0" index="0" disallow="tram rail_urban rail rail_electric ship" speed="13.89" length="6.56" shape="1042.07,902.59 1041.12,900.90 1040.37,899.79 1039.49,898.78 1038.12,897.41"/>
    </edge>
    <edge id=":1621899836_1" function="internal">
        <lane id=":1621899836_1_0" index="0" disallow="tram rail_urban rail rail_electric ship" speed="13.89" length="1.63" shape="1042.07,902.59 1041.44,901.27 1041.40,901.11"/>
    </edge>
    <edge id=":1621899836_4" function="internal">
        <lane id=":1621899836_4_0" index="0" speed="13.89" length="2.75" shape="1041.40,901.11 1041.13,900.14 1041.14,899.20 1041.46,898.46"/>
    </edge>
    <edge id=":1621899836_2" function="internal">
        <lane id=":1621899836_2_0" index="0" disallow="tram rail_urban rail rail_electric ship" speed="13.89" length="5.66" shape="1037.95,902.38 1038.92,901.08 1039.27,899.82 1039.00,898.60 1038.12,897.41"/>
    </edge>
    <edge id=":1621899836_3" function="internal">
        <lane id=":1621899836_3_0" index="0" disallow="tram rail_urban rail rail_electric ship" speed="13.89" length="5.27" shape="1037.95,902.38 1039.05,901.27 1039.81,900.50 1040.51,899.70 1041.46,898.46"/>
    </edge>
    <edge id=":1621904452_0" function="internal">
        <lane id=":1621904452_0_0" index="0" disallow="tram rail_urban rail rail_electric ship" speed="18.05" length="5.02" shape="1235.03,1089.17 1233.94,1088.34 1232.84,1088.06 1231.75,1088.34 1230.65,1089.17"/>
    </edge>
    <edge id=":1621904452_1" function="internal">
        <lane id=":1621904452_1_0" index="0" disallow="tram rail_urban rail rail_electric ship" speed="13.89" length="6.26" shape="1235.03,1089.17 1230.60,1084.75"/>
    </edge>
    <edge id=":1621904452_2" function="internal">
        <lane id=":1621904452_2_0" index="0" disallow="tram rail_urban rail rail_electric ship" speed="22.22" length="6.26" shape="1234.98,1084.65 1230.65,1089.17"/>
    </edge>
    <edge id=":1621904452_3" function="internal">
        <lane id=":1621904452_3_0" index="0" disallow="tram rail_urban rail rail_electric ship" speed="18.05" length="5.03" shape="1234.98,1084.65 1233.90,1085.52 1232.81,1085.83 1231.71,1085.57 1230.60,1084.75"/>
    </edge>
    <edge id=":1621904464_0" function="internal">
        <lane id=":1621904464_0_0" index="0" disallow="tram rail_urban rail rail_electric ship" speed="13.89" length="5.04" shape="1379.78,940.79 1378.71,939.91 1377.62,939.61 1376.51,939.87 1375.40,940.70"/>
    </edge>
    <edge id=":1621904464_1" function="internal">
        <lane id=":1621904464_1_0" index="0" disallow="tram rail_urban rail rail_electric ship" speed="5.56" length="11.32" shape="1379.78,940.79 1372.48,932.15"/>
    </edge>
    <edge id=":1621904464_2" function="internal">
        <lane id=":1621904464_2_0" index="0" disallow="tram rail_urban rail rail_electric ship" speed="18.05" length="4.03" shape="1375.91,930.50 1376.53,934.12 1376.54,934.48"/>
    </edge>
    <edge id=":1621904464_3" function="internal">
        <lane id=":1621904464_3_0" index="0" disallow="tram rail_urban rail rail_electric ship" speed="9.73" length="3.62" shape="1375.91,930.50 1376.35,933.59 1376.19,934.06"/>
    </edge>
    <edge id=":1621904464_4" function="internal">
        <lane id=":1621904464_4_0" index="0" speed="18.05" length="6.49" shape="1376.54,934.48 1376.65,937.03 1376.27,939.22 1375.40,940.70"/>
    </edge>
    <edge id=":1621904464_5" function="internal">
        <lane id=":1621904464_5_0" index="0" speed="9.73" length="5.38" shape="1376.19,934.06 1375.92,934.90 1374.63,934.42 1372.48,932.15"/>
    </edge>
    <edge id=":1710709043_0" function="internal">
        <lane id=":1710709043_0_0" index="0" disallow="tram rail_urban rail rail_electric ship" speed="27.78" length="15.11" shape="1789.47,1111.26 1790.35,1113.56 1789.73,1116.49 1787.60,1120.03 1783.98,1124.20"/>
    </edge>
    <edge id=":1710709043_1" function="internal">
        <lane id=":1710709043_1_0" index="0" disallow="tram rail_urban rail rail_electric ship" speed="27.78" length="4.87" shape="1781.62,1121.89 1782.40,1120.84 1782.69,1119.75 1782.49,1118.65 1781.81,1117.53"/>
    </edge>
    <edge id=":1710709043_2" function="internal">
        <lane id=":1710709043_2_0" index="0" disallow="tram rail_urban rail rail_electric ship" speed="27.78" length="7.54" shape="1781.62,1121.89 1783.43,1119.81 1784.49,1118.04 1784.80,1116.59 1784.36,1115.44"/>
    </edge>
    <edge id=":1710709046_0" function="internal">
        <lane id=":1710709046_0_0" index="0" disallow="tram rail_urban rail rail_electric ship" speed="27.78" length="3.35" shape="1674.68,1226.48 1677.91,1225.62"/>
    </edge>
    <edge id=":1710746464_0" function="internal">
        <lane id=":1710746464_0_0" index="0" disallow="tram rail_urban rail rail_electric ship" speed="27.78" length="9.90" shape="1531.15,797.41 1531.31,800.28 1532.04,802.17 1533.37,803.86 1535.32,806.14"/>
        <lane id=":1710746464_0_1" index="1" disallow="tram rail_urban rail rail_electric ship" speed="27.78" length="9.90" shape="1531.15,797.41 1530.94,800.31 1530.77,802.35 1531.02,804.30 1532.03,806.95"/>
    </edge>
    <edge id=":1710746464_2" function="internal">
        <lane id=":1710746464_2_0" index="0" disallow="tram rail_urban rail rail_electric ship" speed="27.78" length="10.47" shape="1531.15,797.41 1530.93,800.45 1530.36,802.55 1529.18,804.39 1527.14,806.68"/>
    </edge>
    <edge id=":1710758986_0" function="internal">
        <lane id=":1710758986_0_0" index="0" disallow="tram rail_urban rail rail_electric ship" speed="13.89" length="6.20" shape="527.87,777.82 523.63,773.30"/>
    </edge>
    <edge id=":1710758986_1" function="internal">
        <lane id=":1710758986_1_0" index="0" disallow="tram rail_urban rail rail_electric ship" speed="8.34" length="5.12" shape="528.01,773.21 526.93,774.14 525.84,774.46 524.74,774.19 523.63,773.30"/>
    </edge>
    <edge id=":1710758987_0" function="internal">
        <lane id=":1710758987_0_0" index="0" disallow="tram rail_urban rail rail_electric ship" speed="22.22" length="0.24" shape="617.06,682.25 617.23,682.41"/>
    </edge>
    <edge id=":1829944851_0" function="internal">
        <lane id=":1829944851_0_0" index="0" disallow="tram rail_urban rail rail_electric ship" speed="5.56" length="0.10" shape="593.91,1551.83 593.91,1551.83"/>
    </edge>
    <edge id=":1940583260_0" function="internal">
        <lane id=":1940583260_0_0" index="0" disallow="tram rail_urban rail rail_electric ship" speed="13.89" length="0.30" shape="1262.47,1498.90 1262.25,1498.69"/>
    </edge>
    <edge id=":1940899123_0" function="internal">
        <lane id=":1940899123_0_0" index="0" disallow="tram rail_urban rail rail_electric ship" speed="13.89" length="0.30" shape="1380.04,1516.72 1380.25,1516.50"/>
        <lane id=":1940899123_0_1" index="1" disallow="tram rail_urban rail rail_electric ship" speed="13.89" length="0.30" shape="1382.35,1519.07 1382.56,1518.87"/>
    </edge>
    <edge id=":1940899124_0" function="internal">
        <lane id=":1940899124_0_0" index="0" disallow="tram rail_urban rail rail_electric ship" speed="13.89" length="0.30" shape="1365.26,1531.17 1365.47,1530.97"/>
        <lane id=":1940899124_0_1" index="1" disallow="tram rail_urban rail rail_electric ship" speed="13.89" length="0.30" shape="1367.57,1533.54 1367.78,1533.32"/>
    </edge>
    <edge id=":1940910619_0" function="internal">
        <lane id=":1940910619_0_0" index="0" disallow="tram rail_urban rail rail_electric ship" speed="5.56" length="0.30" shape="1533.53,1103.32 1533.33,1103.10"/>
    </edge>
    <edge id=":2034764964_0" function="internal">
        <lane id=":2034764964_0_0" index="0" disallow="tram rail_urban rail rail_electric ship" speed="22.22" length="0.30" shape="688.31,1647.25 688.09,1647.47"/>
    </edge>
    <edge id=":2034764988_0" function="internal">
        <lane id=":2034764988_0_0" index="0" disallow="tram rail_urban rail rail_electric ship" speed="22.22" length="0.10" shape="728.63,1606.54 728.63,1606.54"/>
    </edge>
    <edge id=":2075448033_0" function="internal">
        <lane id=":2075448033_0_0" index="0" disallow="tram rail_urban rail rail_electric ship" speed="11.11" length="5.04" shape="853.29,1276.81 854.38,1277.63 855.48,1277.89 856.60,1277.61 857.72,1276.79"/>
    </edge>
    <edge id=":2075448033_1" function="internal">